data_image0
_cell_length_a       33.331
_cell_length_b       33.331
_cell_length_c       33.331
_cell_angle_alpha    90
_cell_angle_beta     90
_cell_angle_gamma    90

_symmetry_space_group_name_H-M    "P 1"
_symmetry_int_tables_number       1

loop_
  _symmetry_equiv_pos_as_xyz
  'x, y, z'

loop_
  _atom_site_label
  _atom_site_occupancy
  _atom_site_Cartn_x
  _atom_site_Cartn_y
  _atom_site_Cartn_z
  _atom_site_thermal_displace_type
  _atom_site_B_iso_or_equiv
  _atom_site_type_symbol
  H1       1.0000 0.18065  30.47553  27.44875  Biso   1.000  H
  H2       1.0000 33.15035  2.85547  27.44875  Biso   1.000  H
  H3       1.0000 16.48485  30.47553  22.54775  Biso   1.000  H
  H4       1.0000 16.84615  2.85547  22.54775  Biso   1.000  H
  H5       1.0000 27.44875  0.18065  30.47553  Biso   1.000  H
  H6       1.0000 10.78325  33.15035  19.52097  Biso   1.000  H
  H7       1.0000 5.88225  33.15035  30.47553  Biso   1.000  H
  H8       1.0000 22.54775  0.18065  19.52097  Biso   1.000  H
  H9       1.0000 30.47553  10.78325  16.84615  Biso   1.000  H
  H10      1.0000 19.52097  10.78325  33.15035  Biso   1.000  H
  H11      1.0000 13.81003  22.54775  33.15035  Biso   1.000  H
  H12      1.0000 2.85547  22.54775  16.84615  Biso   1.000  H
  H13      1.0000 30.47553  0.18065  27.44875  Biso   1.000  H
  H14      1.0000 2.85547  33.15035  27.44875  Biso   1.000  H
  H15      1.0000 13.81003  33.15035  22.54775  Biso   1.000  H
  H16      1.0000 19.52097  0.18065  22.54775  Biso   1.000  H
  H17      1.0000 16.84615  10.78325  30.47553  Biso   1.000  H
  H18      1.0000 33.15035  10.78325  19.52097  Biso   1.000  H
  H19      1.0000 16.48485  22.54775  30.47553  Biso   1.000  H
  H20      1.0000 0.18065  22.54775  19.52097  Biso   1.000  H
  H21      1.0000 10.78325  30.47553  16.84615  Biso   1.000  H
  H22      1.0000 27.44875  2.85547  33.15035  Biso   1.000  H
  H23      1.0000 5.88225  30.47553  33.15035  Biso   1.000  H
  H24      1.0000 22.54775  2.85547  16.84615  Biso   1.000  H
  H25      1.0000 0.26165  28.75799  25.70653  Biso   1.000  H
  H26      1.0000 33.06935  4.57301  25.70653  Biso   1.000  H
  H27      1.0000 16.40385  28.75799  24.28997  Biso   1.000  H
  H28      1.0000 16.92715  4.57301  24.28997  Biso   1.000  H
  H29      1.0000 25.70653  0.26165  28.75799  Biso   1.000  H
  H30      1.0000 9.04103  33.06935  21.23851  Biso   1.000  H
  H31      1.0000 7.62447  33.06935  28.75799  Biso   1.000  H
  H32      1.0000 24.28997  0.26165  21.23851  Biso   1.000  H
  H33      1.0000 28.75799  9.04103  16.92715  Biso   1.000  H
  H34      1.0000 21.23851  9.04103  33.06935  Biso   1.000  H
  H35      1.0000 12.09249  24.28997  33.06935  Biso   1.000  H
  H36      1.0000 4.57301  24.28997  16.92715  Biso   1.000  H
  H37      1.0000 28.75799  0.26165  25.70653  Biso   1.000  H
  H38      1.0000 4.57301  33.06935  25.70653  Biso   1.000  H
  H39      1.0000 12.09249  33.06935  24.28997  Biso   1.000  H
  H40      1.0000 21.23851  0.26165  24.28997  Biso   1.000  H
  H41      1.0000 16.92715  9.04103  28.75799  Biso   1.000  H
  H42      1.0000 33.06935  9.04103  21.23851  Biso   1.000  H
  H43      1.0000 16.40385  24.28997  28.75799  Biso   1.000  H
  H44      1.0000 0.26165  24.28997  21.23851  Biso   1.000  H
  H45      1.0000 9.04103  28.75799  16.92715  Biso   1.000  H
  H46      1.0000 25.70653  4.57301  33.06935  Biso   1.000  H
  H47      1.0000 7.62447  28.75799  33.06935  Biso   1.000  H
  H48      1.0000 24.28997  4.57301  16.92715  Biso   1.000  H
  H49      1.0000 0.29431  27.36708  24.32096  Biso   1.000  H
  H50      1.0000 33.03669  5.96392  24.32096  Biso   1.000  H
  H51      1.0000 16.37119  27.36708  25.67554  Biso   1.000  H
  H52      1.0000 16.95981  5.96392  25.67554  Biso   1.000  H
  H53      1.0000 24.32096  0.29431  27.36708  Biso   1.000  H
  H54      1.0000 7.65546  33.03669  22.62942  Biso   1.000  H
  H55      1.0000 9.01004  33.03669  27.36708  Biso   1.000  H
  H56      1.0000 25.67554  0.29431  22.62942  Biso   1.000  H
  H57      1.0000 27.36708  7.65546  16.95981  Biso   1.000  H
  H58      1.0000 22.62942  7.65546  33.03669  Biso   1.000  H
  H59      1.0000 10.70158  25.67554  33.03669  Biso   1.000  H
  H60      1.0000 5.96392  25.67554  16.95981  Biso   1.000  H
  H61      1.0000 27.36708  0.29431  24.32096  Biso   1.000  H
  H62      1.0000 5.96392  33.03669  24.32096  Biso   1.000  H
  H63      1.0000 10.70158  33.03669  25.67554  Biso   1.000  H
  H64      1.0000 22.62942  0.29431  25.67554  Biso   1.000  H
  H65      1.0000 16.95981  7.65546  27.36708  Biso   1.000  H
  H66      1.0000 33.03669  7.65546  22.62942  Biso   1.000  H
  H67      1.0000 16.37119  25.67554  27.36708  Biso   1.000  H
  H68      1.0000 0.29431  25.67554  22.62942  Biso   1.000  H
  H69      1.0000 7.65546  27.36708  16.95981  Biso   1.000  H
  H70      1.0000 24.32096  5.96392  33.03669  Biso   1.000  H
  H71      1.0000 9.01004  27.36708  33.03669  Biso   1.000  H
  H72      1.0000 25.67554  5.96392  16.95981  Biso   1.000  H
  C1       1.0000 0.19999  29.42627  27.72306  Biso   1.000  C
  C2       1.0000 33.13101  3.90473  27.72306  Biso   1.000  C
  C3       1.0000 16.46551  29.42627  22.27344  Biso   1.000  C
  C4       1.0000 16.86549  3.90473  22.27344  Biso   1.000  C
  C5       1.0000 27.72306  0.19999  29.42627  Biso   1.000  C
  C6       1.0000 11.05756  33.13101  20.57023  Biso   1.000  C
  C7       1.0000 5.60794  33.13101  29.42627  Biso   1.000  C
  C8       1.0000 22.27344  0.19999  20.57023  Biso   1.000  C
  C9       1.0000 29.42627  11.05756  16.86549  Biso   1.000  C
  C10      1.0000 20.57023  11.05756  33.13101  Biso   1.000  C
  C11      1.0000 12.76077  22.27344  33.13101  Biso   1.000  C
  C12      1.0000 3.90473  22.27344  16.86549  Biso   1.000  C
  C13      1.0000 29.42627  0.19999  27.72306  Biso   1.000  C
  C14      1.0000 3.90473  33.13101  27.72306  Biso   1.000  C
  C15      1.0000 12.76077  33.13101  22.27344  Biso   1.000  C
  C16      1.0000 20.57023  0.19999  22.27344  Biso   1.000  C
  C17      1.0000 16.86549  11.05756  29.42627  Biso   1.000  C
  C18      1.0000 33.13101  11.05756  20.57023  Biso   1.000  C
  C19      1.0000 16.46551  22.27344  29.42627  Biso   1.000  C
  C20      1.0000 0.19999  22.27344  20.57023  Biso   1.000  C
  C21      1.0000 11.05756  29.42627  16.86549  Biso   1.000  C
  C22      1.0000 27.72306  3.90473  33.13101  Biso   1.000  C
  C23      1.0000 5.60794  29.42627  33.13101  Biso   1.000  C
  C24      1.0000 22.27344  3.90473  16.86549  Biso   1.000  C
  C25      1.0000 0.24498  28.44134  26.74313  Biso   1.000  C
  C26      1.0000 33.08602  4.88966  26.74313  Biso   1.000  C
  C27      1.0000 16.42052  28.44134  23.25337  Biso   1.000  C
  C28      1.0000 16.91048  4.88966  23.25337  Biso   1.000  C
  C29      1.0000 26.74313  0.24498  28.44134  Biso   1.000  C
  C30      1.0000 10.07763  33.08602  21.55516  Biso   1.000  C
  C31      1.0000 6.58787  33.08602  28.44134  Biso   1.000  C
  C32      1.0000 23.25337  0.24498  21.55516  Biso   1.000  C
  C33      1.0000 28.44134  10.07763  16.91048  Biso   1.000  C
  C34      1.0000 21.55516  10.07763  33.08602  Biso   1.000  C
  C35      1.0000 11.77584  23.25337  33.08602  Biso   1.000  C
  C36      1.0000 4.88966  23.25337  16.91048  Biso   1.000  C
  C37      1.0000 28.44134  0.24498  26.74313  Biso   1.000  C
  C38      1.0000 4.88966  33.08602  26.74313  Biso   1.000  C
  C39      1.0000 11.77584  33.08602  23.25337  Biso   1.000  C
  C40      1.0000 21.55516  0.24498  23.25337  Biso   1.000  C
  C41      1.0000 16.91048  10.07763  28.44134  Biso   1.000  C
  C42      1.0000 33.08602  10.07763  21.55516  Biso   1.000  C
  C43      1.0000 16.42052  23.25337  28.44134  Biso   1.000  C
  C44      1.0000 0.24498  23.25337  21.55516  Biso   1.000  C
  C45      1.0000 10.07763  28.44134  16.91048  Biso   1.000  C
  C46      1.0000 26.74313  4.88966  33.08602  Biso   1.000  C
  C47      1.0000 6.58787  28.44134  33.08602  Biso   1.000  C
  C48      1.0000 23.25337  4.88966  16.91048  Biso   1.000  C
  C49      1.0000 0.29331  26.33316  24.64661  Biso   1.000  C
  C50      1.0000 33.03769  6.99784  24.64661  Biso   1.000  C
  C51      1.0000 16.37219  26.33316  25.34989  Biso   1.000  C
  C52      1.0000 16.95881  6.99784  25.34989  Biso   1.000  C
  C53      1.0000 24.64661  0.29331  26.33316  Biso   1.000  C
  C54      1.0000 7.98111  33.03769  23.66334  Biso   1.000  C
  C55      1.0000 8.68439  33.03769  26.33316  Biso   1.000  C
  C56      1.0000 25.34989  0.29331  23.66334  Biso   1.000  C
  C57      1.0000 26.33316  7.98111  16.95881  Biso   1.000  C
  C58      1.0000 23.66334  7.98111  33.03769  Biso   1.000  C
  C59      1.0000 9.66766  25.34989  33.03769  Biso   1.000  C
  C60      1.0000 6.99784  25.34989  16.95881  Biso   1.000  C
  C61      1.0000 26.33316  0.29331  24.64661  Biso   1.000  C
  C62      1.0000 6.99784  33.03769  24.64661  Biso   1.000  C
  C63      1.0000 9.66766  33.03769  25.34989  Biso   1.000  C
  C64      1.0000 23.66334  0.29331  25.34989  Biso   1.000  C
  C65      1.0000 16.95881  7.98111  26.33316  Biso   1.000  C
  C66      1.0000 33.03769  7.98111  23.66334  Biso   1.000  C
  C67      1.0000 16.37219  25.34989  26.33316  Biso   1.000  C
  C68      1.0000 0.29331  25.34989  23.66334  Biso   1.000  C
  C69      1.0000 7.98111  26.33316  16.95881  Biso   1.000  C
  C70      1.0000 24.64661  6.99784  33.03769  Biso   1.000  C
  C71      1.0000 8.68439  26.33316  33.03769  Biso   1.000  C
  C72      1.0000 25.34989  6.99784  16.95881  Biso   1.000  C
  O1       1.0000 0.05500  31.34781  29.74958  Biso   1.000  O
  O2       1.0000 33.27600  1.98319  29.74958  Biso   1.000  O
  O3       1.0000 16.61050  31.34781  20.24692  Biso   1.000  O
  O4       1.0000 16.72050  1.98319  20.24692  Biso   1.000  O
  O5       1.0000 29.74958  0.05500  31.34781  Biso   1.000  O
  O6       1.0000 13.08408  33.27600  18.64869  Biso   1.000  O
  O7       1.0000 3.58142  33.27600  31.34781  Biso   1.000  O
  O8       1.0000 20.24692  0.05500  18.64869  Biso   1.000  O
  O9       1.0000 31.34781  13.08408  16.72050  Biso   1.000  O
  O10      1.0000 18.64869  13.08408  33.27600  Biso   1.000  O
  O11      1.0000 14.68231  20.24692  33.27600  Biso   1.000  O
  O12      1.0000 1.98319  20.24692  16.72050  Biso   1.000  O
  O13      1.0000 31.34781  0.05500  29.74958  Biso   1.000  O
  O14      1.0000 1.98319  33.27600  29.74958  Biso   1.000  O
  O15      1.0000 14.68231  33.27600  20.24692  Biso   1.000  O
  O16      1.0000 18.64869  0.05500  20.24692  Biso   1.000  O
  O17      1.0000 16.72050  13.08408  31.34781  Biso   1.000  O
  O18      1.0000 33.27600  13.08408  18.64869  Biso   1.000  O
  O19      1.0000 16.61050  20.24692  31.34781  Biso   1.000  O
  O20      1.0000 0.05500  20.24692  18.64869  Biso   1.000  O
  O21      1.0000 13.08408  31.34781  16.72050  Biso   1.000  O
  O22      1.0000 29.74958  1.98319  33.27600  Biso   1.000  O
  O23      1.0000 3.58142  31.34781  33.27600  Biso   1.000  O
  O24      1.0000 20.24692  1.98319  16.72050  Biso   1.000  O
  H73      1.0000 1.96653  1.96653  31.36447  Biso   1.000  H
  H74      1.0000 14.69897  14.69897  31.36447  Biso   1.000  H
  H75      1.0000 14.69897  1.96653  18.63203  Biso   1.000  H
  H76      1.0000 1.96653  14.69897  18.63203  Biso   1.000  H
  C73      1.0000 0.09599  30.13522  30.13522  Biso   1.000  C
  C74      1.0000 16.56951  19.86128  30.13522  Biso   1.000  C
  C75      1.0000 16.56951  30.13522  19.86128  Biso   1.000  C
  C76      1.0000 0.09599  19.86128  19.86128  Biso   1.000  C
  C77      1.0000 13.46972  16.76149  30.13522  Biso   1.000  C
  C78      1.0000 13.46972  33.23501  19.86128  Biso   1.000  C
  C79      1.0000 3.19578  33.23501  30.13522  Biso   1.000  C
  C80      1.0000 3.19578  16.76149  19.86128  Biso   1.000  C
  C81      1.0000 13.46972  30.13522  16.76149  Biso   1.000  C
  C82      1.0000 3.19578  30.13522  33.23501  Biso   1.000  C
  C83      1.0000 13.46972  19.86128  33.23501  Biso   1.000  C
  C84      1.0000 3.19578  19.86128  16.76149  Biso   1.000  C
  C85      1.0000 0.17265  29.07863  29.07863  Biso   1.000  C
  C86      1.0000 16.49285  20.91787  29.07863  Biso   1.000  C
  C87      1.0000 16.49285  29.07863  20.91787  Biso   1.000  C
  C88      1.0000 0.17265  20.91787  20.91787  Biso   1.000  C
  C89      1.0000 12.41313  16.83815  29.07863  Biso   1.000  C
  C90      1.0000 12.41313  33.15835  20.91787  Biso   1.000  C
  C91      1.0000 4.25237  33.15835  29.07863  Biso   1.000  C
  C92      1.0000 4.25237  16.83815  20.91787  Biso   1.000  C
  C93      1.0000 12.41313  29.07863  16.83815  Biso   1.000  C
  C94      1.0000 4.25237  29.07863  33.15835  Biso   1.000  C
  C95      1.0000 12.41313  20.91787  33.15835  Biso   1.000  C
  C96      1.0000 4.25237  20.91787  16.83815  Biso   1.000  C
  C97      1.0000 0.28765  26.01751  26.01751  Biso   1.000  C
  C98      1.0000 16.37785  23.97899  26.01751  Biso   1.000  C
  C99      1.0000 16.37785  26.01751  23.97899  Biso   1.000  C
  C100     1.0000 0.28765  23.97899  23.97899  Biso   1.000  C
  C101     1.0000 9.35201  16.95315  26.01751  Biso   1.000  C
  C102     1.0000 9.35201  33.04335  23.97899  Biso   1.000  C
  C103     1.0000 7.31349  33.04335  26.01751  Biso   1.000  C
  C104     1.0000 7.31349  16.95315  23.97899  Biso   1.000  C
  C105     1.0000 9.35201  26.01751  16.95315  Biso   1.000  C
  C106     1.0000 7.31349  26.01751  33.04335  Biso   1.000  C
  C107     1.0000 9.35201  23.97899  33.04335  Biso   1.000  C
  C108     1.0000 7.31349  23.97899  16.95315  Biso   1.000  C
  C109     1.0000 0.26331  27.07144  27.07144  Biso   1.000  C
  C110     1.0000 16.40219  22.92506  27.07144  Biso   1.000  C
  C111     1.0000 16.40219  27.07144  22.92506  Biso   1.000  C
  C112     1.0000 0.26331  22.92506  22.92506  Biso   1.000  C
  C113     1.0000 10.40594  16.92881  27.07144  Biso   1.000  C
  C114     1.0000 10.40594  33.06769  22.92506  Biso   1.000  C
  C115     1.0000 6.25956  33.06769  27.07144  Biso   1.000  C
  C116     1.0000 6.25956  16.92881  22.92506  Biso   1.000  C
  C117     1.0000 10.40594  27.07144  16.92881  Biso   1.000  C
  C118     1.0000 6.25956  27.07144  33.06769  Biso   1.000  C
  C119     1.0000 10.40594  22.92506  33.06769  Biso   1.000  C
  C120     1.0000 6.25956  22.92506  16.92881  Biso   1.000  C
  O25      1.0000 15.25460  15.25460  31.92010  Biso   1.000  O
  O26      1.0000 1.41090  1.41090  31.92010  Biso   1.000  O
  O27      1.0000 1.41090  15.25460  18.07640  Biso   1.000  O
  O28      1.0000 15.25460  1.41090  18.07640  Biso   1.000  O
  O29      1.0000 1.03759  17.70309  17.70309  Biso   1.000  O
  O30      1.0000 15.62791  32.29341  17.70309  Biso   1.000  O
  O31      1.0000 15.62791  17.70309  32.29341  Biso   1.000  O
  O32      1.0000 1.03759  32.29341  32.29341  Biso   1.000  O
  Zr1      1.0000 30.80784  0.00000  0.00000  Biso   1.000  Zr
  Zr2      1.0000 2.52316  0.00000  0.00000  Biso   1.000  Zr
  Zr3      1.0000 16.66550  14.14234  0.00000  Biso   1.000  Zr
  Zr4      1.0000 16.66550  19.18866  0.00000  Biso   1.000  Zr
  Zr5      1.0000 0.00000  0.00000  30.80784  Biso   1.000  Zr
  Zr6      1.0000 16.66550  0.00000  19.18866  Biso   1.000  Zr
  H77      1.0000 0.18065  13.81003  10.78325  Biso   1.000  H
  H78      1.0000 33.15035  19.52097  10.78325  Biso   1.000  H
  H79      1.0000 16.48485  13.81003  5.88225  Biso   1.000  H
  H80      1.0000 16.84615  19.52097  5.88225  Biso   1.000  H
  H81      1.0000 27.44875  16.84615  13.81003  Biso   1.000  H
  H82      1.0000 10.78325  16.48485  2.85547  Biso   1.000  H
  H83      1.0000 5.88225  16.48485  13.81003  Biso   1.000  H
  H84      1.0000 22.54775  16.84615  2.85547  Biso   1.000  H
  H85      1.0000 30.47553  27.44875  0.18065  Biso   1.000  H
  H86      1.0000 19.52097  27.44875  16.48485  Biso   1.000  H
  H87      1.0000 13.81003  5.88225  16.48485  Biso   1.000  H
  H88      1.0000 2.85547  5.88225  0.18065  Biso   1.000  H
  H89      1.0000 30.47553  16.84615  10.78325  Biso   1.000  H
  H90      1.0000 2.85547  16.48485  10.78325  Biso   1.000  H
  H91      1.0000 13.81003  16.48485  5.88225  Biso   1.000  H
  H92      1.0000 19.52097  16.84615  5.88225  Biso   1.000  H
  H93      1.0000 16.84615  27.44875  13.81003  Biso   1.000  H
  H94      1.0000 33.15035  27.44875  2.85547  Biso   1.000  H
  H95      1.0000 16.48485  5.88225  13.81003  Biso   1.000  H
  H96      1.0000 0.18065  5.88225  2.85547  Biso   1.000  H
  H97      1.0000 10.78325  13.81003  0.18065  Biso   1.000  H
  H98      1.0000 27.44875  19.52097  16.48485  Biso   1.000  H
  H99      1.0000 5.88225  13.81003  16.48485  Biso   1.000  H
  H100     1.0000 22.54775  19.52097  0.18065  Biso   1.000  H
  H101     1.0000 0.26165  12.09249  9.04103  Biso   1.000  H
  H102     1.0000 33.06935  21.23851  9.04103  Biso   1.000  H
  H103     1.0000 16.40385  12.09249  7.62447  Biso   1.000  H
  H104     1.0000 16.92715  21.23851  7.62447  Biso   1.000  H
  H105     1.0000 25.70653  16.92715  12.09249  Biso   1.000  H
  H106     1.0000 9.04103  16.40385  4.57301  Biso   1.000  H
  H107     1.0000 7.62447  16.40385  12.09249  Biso   1.000  H
  H108     1.0000 24.28997  16.92715  4.57301  Biso   1.000  H
  H109     1.0000 28.75799  25.70653  0.26165  Biso   1.000  H
  H110     1.0000 21.23851  25.70653  16.40385  Biso   1.000  H
  H111     1.0000 12.09249  7.62447  16.40385  Biso   1.000  H
  H112     1.0000 4.57301  7.62447  0.26165  Biso   1.000  H
  H113     1.0000 28.75799  16.92715  9.04103  Biso   1.000  H
  H114     1.0000 4.57301  16.40385  9.04103  Biso   1.000  H
  H115     1.0000 12.09249  16.40385  7.62447  Biso   1.000  H
  H116     1.0000 21.23851  16.92715  7.62447  Biso   1.000  H
  H117     1.0000 16.92715  25.70653  12.09249  Biso   1.000  H
  H118     1.0000 33.06935  25.70653  4.57301  Biso   1.000  H
  H119     1.0000 16.40385  7.62447  12.09249  Biso   1.000  H
  H120     1.0000 0.26165  7.62447  4.57301  Biso   1.000  H
  H121     1.0000 9.04103  12.09249  0.26165  Biso   1.000  H
  H122     1.0000 25.70653  21.23851  16.40385  Biso   1.000  H
  H123     1.0000 7.62447  12.09249  16.40385  Biso   1.000  H
  H124     1.0000 24.28997  21.23851  0.26165  Biso   1.000  H
  H125     1.0000 0.29431  10.70158  7.65546  Biso   1.000  H
  H126     1.0000 33.03669  22.62942  7.65546  Biso   1.000  H
  H127     1.0000 16.37119  10.70158  9.01004  Biso   1.000  H
  H128     1.0000 16.95981  22.62942  9.01004  Biso   1.000  H
  H129     1.0000 24.32096  16.95981  10.70158  Biso   1.000  H
  H130     1.0000 7.65546  16.37119  5.96392  Biso   1.000  H
  H131     1.0000 9.01004  16.37119  10.70158  Biso   1.000  H
  H132     1.0000 25.67554  16.95981  5.96392  Biso   1.000  H
  H133     1.0000 27.36708  24.32096  0.29431  Biso   1.000  H
  H134     1.0000 22.62942  24.32096  16.37119  Biso   1.000  H
  H135     1.0000 10.70158  9.01004  16.37119  Biso   1.000  H
  H136     1.0000 5.96392  9.01004  0.29431  Biso   1.000  H
  H137     1.0000 27.36708  16.95981  7.65546  Biso   1.000  H
  H138     1.0000 5.96392  16.37119  7.65546  Biso   1.000  H
  H139     1.0000 10.70158  16.37119  9.01004  Biso   1.000  H
  H140     1.0000 22.62942  16.95981  9.01004  Biso   1.000  H
  H141     1.0000 16.95981  24.32096  10.70158  Biso   1.000  H
  H142     1.0000 33.03669  24.32096  5.96392  Biso   1.000  H
  H143     1.0000 16.37119  9.01004  10.70158  Biso   1.000  H
  H144     1.0000 0.29431  9.01004  5.96392  Biso   1.000  H
  H145     1.0000 7.65546  10.70158  0.29431  Biso   1.000  H
  H146     1.0000 24.32096  22.62942  16.37119  Biso   1.000  H
  H147     1.0000 9.01004  10.70158  16.37119  Biso   1.000  H
  H148     1.0000 25.67554  22.62942  0.29431  Biso   1.000  H
  C121     1.0000 0.19999  12.76077  11.05756  Biso   1.000  C
  C122     1.0000 33.13101  20.57023  11.05756  Biso   1.000  C
  C123     1.0000 16.46551  12.76077  5.60794  Biso   1.000  C
  C124     1.0000 16.86549  20.57023  5.60794  Biso   1.000  C
  C125     1.0000 27.72306  16.86549  12.76077  Biso   1.000  C
  C126     1.0000 11.05756  16.46551  3.90473  Biso   1.000  C
  C127     1.0000 5.60794  16.46551  12.76077  Biso   1.000  C
  C128     1.0000 22.27344  16.86549  3.90473  Biso   1.000  C
  C129     1.0000 29.42627  27.72306  0.19999  Biso   1.000  C
  C130     1.0000 20.57023  27.72306  16.46551  Biso   1.000  C
  C131     1.0000 12.76077  5.60794  16.46551  Biso   1.000  C
  C132     1.0000 3.90473  5.60794  0.19999  Biso   1.000  C
  C133     1.0000 29.42627  16.86549  11.05756  Biso   1.000  C
  C134     1.0000 3.90473  16.46551  11.05756  Biso   1.000  C
  C135     1.0000 12.76077  16.46551  5.60794  Biso   1.000  C
  C136     1.0000 20.57023  16.86549  5.60794  Biso   1.000  C
  C137     1.0000 16.86549  27.72306  12.76077  Biso   1.000  C
  C138     1.0000 33.13101  27.72306  3.90473  Biso   1.000  C
  C139     1.0000 16.46551  5.60794  12.76077  Biso   1.000  C
  C140     1.0000 0.19999  5.60794  3.90473  Biso   1.000  C
  C141     1.0000 11.05756  12.76077  0.19999  Biso   1.000  C
  C142     1.0000 27.72306  20.57023  16.46551  Biso   1.000  C
  C143     1.0000 5.60794  12.76077  16.46551  Biso   1.000  C
  C144     1.0000 22.27344  20.57023  0.19999  Biso   1.000  C
  C145     1.0000 0.24498  11.77584  10.07763  Biso   1.000  C
  C146     1.0000 33.08602  21.55516  10.07763  Biso   1.000  C
  C147     1.0000 16.42052  11.77584  6.58787  Biso   1.000  C
  C148     1.0000 16.91048  21.55516  6.58787  Biso   1.000  C
  C149     1.0000 26.74313  16.91048  11.77584  Biso   1.000  C
  C150     1.0000 10.07763  16.42052  4.88966  Biso   1.000  C
  C151     1.0000 6.58787  16.42052  11.77584  Biso   1.000  C
  C152     1.0000 23.25337  16.91048  4.88966  Biso   1.000  C
  C153     1.0000 28.44134  26.74313  0.24498  Biso   1.000  C
  C154     1.0000 21.55516  26.74313  16.42052  Biso   1.000  C
  C155     1.0000 11.77584  6.58787  16.42052  Biso   1.000  C
  C156     1.0000 4.88966  6.58787  0.24498  Biso   1.000  C
  C157     1.0000 28.44134  16.91048  10.07763  Biso   1.000  C
  C158     1.0000 4.88966  16.42052  10.07763  Biso   1.000  C
  C159     1.0000 11.77584  16.42052  6.58787  Biso   1.000  C
  C160     1.0000 21.55516  16.91048  6.58787  Biso   1.000  C
  C161     1.0000 16.91048  26.74313  11.77584  Biso   1.000  C
  C162     1.0000 33.08602  26.74313  4.88966  Biso   1.000  C
  C163     1.0000 16.42052  6.58787  11.77584  Biso   1.000  C
  C164     1.0000 0.24498  6.58787  4.88966  Biso   1.000  C
  C165     1.0000 10.07763  11.77584  0.24498  Biso   1.000  C
  C166     1.0000 26.74313  21.55516  16.42052  Biso   1.000  C
  C167     1.0000 6.58787  11.77584  16.42052  Biso   1.000  C
  C168     1.0000 23.25337  21.55516  0.24498  Biso   1.000  C
  C169     1.0000 0.29331  9.66766  7.98111  Biso   1.000  C
  C170     1.0000 33.03769  23.66334  7.98111  Biso   1.000  C
  C171     1.0000 16.37219  9.66766  8.68439  Biso   1.000  C
  C172     1.0000 16.95881  23.66334  8.68439  Biso   1.000  C
  C173     1.0000 24.64661  16.95881  9.66766  Biso   1.000  C
  C174     1.0000 7.98111  16.37219  6.99784  Biso   1.000  C
  C175     1.0000 8.68439  16.37219  9.66766  Biso   1.000  C
  C176     1.0000 25.34989  16.95881  6.99784  Biso   1.000  C
  C177     1.0000 26.33316  24.64661  0.29331  Biso   1.000  C
  C178     1.0000 23.66334  24.64661  16.37219  Biso   1.000  C
  C179     1.0000 9.66766  8.68439  16.37219  Biso   1.000  C
  C180     1.0000 6.99784  8.68439  0.29331  Biso   1.000  C
  C181     1.0000 26.33316  16.95881  7.98111  Biso   1.000  C
  C182     1.0000 6.99784  16.37219  7.98111  Biso   1.000  C
  C183     1.0000 9.66766  16.37219  8.68439  Biso   1.000  C
  C184     1.0000 23.66334  16.95881  8.68439  Biso   1.000  C
  C185     1.0000 16.95881  24.64661  9.66766  Biso   1.000  C
  C186     1.0000 33.03769  24.64661  6.99784  Biso   1.000  C
  C187     1.0000 16.37219  8.68439  9.66766  Biso   1.000  C
  C188     1.0000 0.29331  8.68439  6.99784  Biso   1.000  C
  C189     1.0000 7.98111  9.66766  0.29331  Biso   1.000  C
  C190     1.0000 24.64661  23.66334  16.37219  Biso   1.000  C
  C191     1.0000 8.68439  9.66766  16.37219  Biso   1.000  C
  C192     1.0000 25.34989  23.66334  0.29331  Biso   1.000  C
  O33      1.0000 0.05500  14.68231  13.08408  Biso   1.000  O
  O34      1.0000 33.27600  18.64869  13.08408  Biso   1.000  O
  O35      1.0000 16.61050  14.68231  3.58142  Biso   1.000  O
  O36      1.0000 16.72050  18.64869  3.58142  Biso   1.000  O
  O37      1.0000 29.74958  16.72050  14.68231  Biso   1.000  O
  O38      1.0000 13.08408  16.61050  1.98319  Biso   1.000  O
  O39      1.0000 3.58142  16.61050  14.68231  Biso   1.000  O
  O40      1.0000 20.24692  16.72050  1.98319  Biso   1.000  O
  O41      1.0000 31.34781  29.74958  0.05500  Biso   1.000  O
  O42      1.0000 18.64869  29.74958  16.61050  Biso   1.000  O
  O43      1.0000 14.68231  3.58142  16.61050  Biso   1.000  O
  O44      1.0000 1.98319  3.58142  0.05500  Biso   1.000  O
  O45      1.0000 31.34781  16.72050  13.08408  Biso   1.000  O
  O46      1.0000 1.98319  16.61050  13.08408  Biso   1.000  O
  O47      1.0000 14.68231  16.61050  3.58142  Biso   1.000  O
  O48      1.0000 18.64869  16.72050  3.58142  Biso   1.000  O
  O49      1.0000 16.72050  29.74958  14.68231  Biso   1.000  O
  O50      1.0000 33.27600  29.74958  1.98319  Biso   1.000  O
  O51      1.0000 16.61050  3.58142  14.68231  Biso   1.000  O
  O52      1.0000 0.05500  3.58142  1.98319  Biso   1.000  O
  O53      1.0000 13.08408  14.68231  0.05500  Biso   1.000  O
  O54      1.0000 29.74958  18.64869  16.61050  Biso   1.000  O
  O55      1.0000 3.58142  14.68231  16.61050  Biso   1.000  O
  O56      1.0000 20.24692  18.64869  0.05500  Biso   1.000  O
  H149     1.0000 1.96653  18.63203  14.69897  Biso   1.000  H
  H150     1.0000 14.69897  31.36447  14.69897  Biso   1.000  H
  H151     1.0000 14.69897  18.63203  1.96653  Biso   1.000  H
  H152     1.0000 1.96653  31.36447  1.96653  Biso   1.000  H
  C193     1.0000 0.09599  13.46972  13.46972  Biso   1.000  C
  C194     1.0000 16.56951  3.19578  13.46972  Biso   1.000  C
  C195     1.0000 16.56951  13.46972  3.19578  Biso   1.000  C
  C196     1.0000 0.09599  3.19578  3.19578  Biso   1.000  C
  C197     1.0000 13.46972  0.09599  13.46972  Biso   1.000  C
  C198     1.0000 13.46972  16.56951  3.19578  Biso   1.000  C
  C199     1.0000 3.19578  16.56951  13.46972  Biso   1.000  C
  C200     1.0000 3.19578  0.09599  3.19578  Biso   1.000  C
  C201     1.0000 13.46972  13.46972  0.09599  Biso   1.000  C
  C202     1.0000 3.19578  13.46972  16.56951  Biso   1.000  C
  C203     1.0000 13.46972  3.19578  16.56951  Biso   1.000  C
  C204     1.0000 3.19578  3.19578  0.09599  Biso   1.000  C
  C205     1.0000 0.17265  12.41313  12.41313  Biso   1.000  C
  C206     1.0000 16.49285  4.25237  12.41313  Biso   1.000  C
  C207     1.0000 16.49285  12.41313  4.25237  Biso   1.000  C
  C208     1.0000 0.17265  4.25237  4.25237  Biso   1.000  C
  C209     1.0000 12.41313  0.17265  12.41313  Biso   1.000  C
  C210     1.0000 12.41313  16.49285  4.25237  Biso   1.000  C
  C211     1.0000 4.25237  16.49285  12.41313  Biso   1.000  C
  C212     1.0000 4.25237  0.17265  4.25237  Biso   1.000  C
  C213     1.0000 12.41313  12.41313  0.17265  Biso   1.000  C
  C214     1.0000 4.25237  12.41313  16.49285  Biso   1.000  C
  C215     1.0000 12.41313  4.25237  16.49285  Biso   1.000  C
  C216     1.0000 4.25237  4.25237  0.17265  Biso   1.000  C
  C217     1.0000 0.28765  9.35201  9.35201  Biso   1.000  C
  C218     1.0000 16.37785  7.31349  9.35201  Biso   1.000  C
  C219     1.0000 16.37785  9.35201  7.31349  Biso   1.000  C
  C220     1.0000 0.28765  7.31349  7.31349  Biso   1.000  C
  C221     1.0000 9.35201  0.28765  9.35201  Biso   1.000  C
  C222     1.0000 9.35201  16.37785  7.31349  Biso   1.000  C
  C223     1.0000 7.31349  16.37785  9.35201  Biso   1.000  C
  C224     1.0000 7.31349  0.28765  7.31349  Biso   1.000  C
  C225     1.0000 9.35201  9.35201  0.28765  Biso   1.000  C
  C226     1.0000 7.31349  9.35201  16.37785  Biso   1.000  C
  C227     1.0000 9.35201  7.31349  16.37785  Biso   1.000  C
  C228     1.0000 7.31349  7.31349  0.28765  Biso   1.000  C
  C229     1.0000 0.26331  10.40594  10.40594  Biso   1.000  C
  C230     1.0000 16.40219  6.25956  10.40594  Biso   1.000  C
  C231     1.0000 16.40219  10.40594  6.25956  Biso   1.000  C
  C232     1.0000 0.26331  6.25956  6.25956  Biso   1.000  C
  C233     1.0000 10.40594  0.26331  10.40594  Biso   1.000  C
  C234     1.0000 10.40594  16.40219  6.25956  Biso   1.000  C
  C235     1.0000 6.25956  16.40219  10.40594  Biso   1.000  C
  C236     1.0000 6.25956  0.26331  6.25956  Biso   1.000  C
  C237     1.0000 10.40594  10.40594  0.26331  Biso   1.000  C
  C238     1.0000 6.25956  10.40594  16.40219  Biso   1.000  C
  C239     1.0000 10.40594  6.25956  16.40219  Biso   1.000  C
  C240     1.0000 6.25956  6.25956  0.26331  Biso   1.000  C
  O57      1.0000 15.25460  31.92010  15.25460  Biso   1.000  O
  O58      1.0000 1.41090  18.07640  15.25460  Biso   1.000  O
  O59      1.0000 1.41090  31.92010  1.41090  Biso   1.000  O
  O60      1.0000 15.25460  18.07640  1.41090  Biso   1.000  O
  O61      1.0000 1.03759  1.03759  1.03759  Biso   1.000  O
  O62      1.0000 15.62791  15.62791  1.03759  Biso   1.000  O
  O63      1.0000 15.62791  1.03759  15.62791  Biso   1.000  O
  O64      1.0000 1.03759  15.62791  15.62791  Biso   1.000  O
  Zr7      1.0000 30.80784  16.66550  16.66550  Biso   1.000  Zr
  Zr8      1.0000 2.52316  16.66550  16.66550  Biso   1.000  Zr
  Zr9      1.0000 16.66550  30.80784  16.66550  Biso   1.000  Zr
  Zr10     1.0000 16.66550  2.52316  16.66550  Biso   1.000  Zr
  Zr11     1.0000 0.00000  16.66550  14.14234  Biso   1.000  Zr
  Zr12     1.0000 16.66550  16.66550  2.52316  Biso   1.000  Zr
  H153     1.0000 16.84615  30.47553  10.78325  Biso   1.000  H
  H154     1.0000 16.48485  2.85547  10.78325  Biso   1.000  H
  H155     1.0000 33.15035  30.47553  5.88225  Biso   1.000  H
  H156     1.0000 0.18065  2.85547  5.88225  Biso   1.000  H
  H157     1.0000 10.78325  0.18065  13.81003  Biso   1.000  H
  H158     1.0000 27.44875  33.15035  2.85547  Biso   1.000  H
  H159     1.0000 22.54775  33.15035  13.81003  Biso   1.000  H
  H160     1.0000 5.88225  0.18065  2.85547  Biso   1.000  H
  H161     1.0000 13.81003  10.78325  0.18065  Biso   1.000  H
  H162     1.0000 2.85547  10.78325  16.48485  Biso   1.000  H
  H163     1.0000 30.47553  22.54775  16.48485  Biso   1.000  H
  H164     1.0000 19.52097  22.54775  0.18065  Biso   1.000  H
  H165     1.0000 13.81003  0.18065  10.78325  Biso   1.000  H
  H166     1.0000 19.52097  33.15035  10.78325  Biso   1.000  H
  H167     1.0000 30.47553  33.15035  5.88225  Biso   1.000  H
  H168     1.0000 2.85547  0.18065  5.88225  Biso   1.000  H
  H169     1.0000 0.18065  10.78325  13.81003  Biso   1.000  H
  H170     1.0000 16.48485  10.78325  2.85547  Biso   1.000  H
  H171     1.0000 33.15035  22.54775  13.81003  Biso   1.000  H
  H172     1.0000 16.84615  22.54775  2.85547  Biso   1.000  H
  H173     1.0000 27.44875  30.47553  0.18065  Biso   1.000  H
  H174     1.0000 10.78325  2.85547  16.48485  Biso   1.000  H
  H175     1.0000 22.54775  30.47553  16.48485  Biso   1.000  H
  H176     1.0000 5.88225  2.85547  0.18065  Biso   1.000  H
  H177     1.0000 16.92715  28.75799  9.04103  Biso   1.000  H
  H178     1.0000 16.40385  4.57301  9.04103  Biso   1.000  H
  H179     1.0000 33.06935  28.75799  7.62447  Biso   1.000  H
  H180     1.0000 0.26165  4.57301  7.62447  Biso   1.000  H
  H181     1.0000 9.04103  0.26165  12.09249  Biso   1.000  H
  H182     1.0000 25.70653  33.06935  4.57301  Biso   1.000  H
  H183     1.0000 24.28997  33.06935  12.09249  Biso   1.000  H
  H184     1.0000 7.62447  0.26165  4.57301  Biso   1.000  H
  H185     1.0000 12.09249  9.04103  0.26165  Biso   1.000  H
  H186     1.0000 4.57301  9.04103  16.40385  Biso   1.000  H
  H187     1.0000 28.75799  24.28997  16.40385  Biso   1.000  H
  H188     1.0000 21.23851  24.28997  0.26165  Biso   1.000  H
  H189     1.0000 12.09249  0.26165  9.04103  Biso   1.000  H
  H190     1.0000 21.23851  33.06935  9.04103  Biso   1.000  H
  H191     1.0000 28.75799  33.06935  7.62447  Biso   1.000  H
  H192     1.0000 4.57301  0.26165  7.62447  Biso   1.000  H
  H193     1.0000 0.26165  9.04103  12.09249  Biso   1.000  H
  H194     1.0000 16.40385  9.04103  4.57301  Biso   1.000  H
  H195     1.0000 33.06935  24.28997  12.09249  Biso   1.000  H
  H196     1.0000 16.92715  24.28997  4.57301  Biso   1.000  H
  H197     1.0000 25.70653  28.75799  0.26165  Biso   1.000  H
  H198     1.0000 9.04103  4.57301  16.40385  Biso   1.000  H
  H199     1.0000 24.28997  28.75799  16.40385  Biso   1.000  H
  H200     1.0000 7.62447  4.57301  0.26165  Biso   1.000  H
  H201     1.0000 16.95981  27.36708  7.65546  Biso   1.000  H
  H202     1.0000 16.37119  5.96392  7.65546  Biso   1.000  H
  H203     1.0000 33.03669  27.36708  9.01004  Biso   1.000  H
  H204     1.0000 0.29431  5.96392  9.01004  Biso   1.000  H
  H205     1.0000 7.65546  0.29431  10.70158  Biso   1.000  H
  H206     1.0000 24.32096  33.03669  5.96392  Biso   1.000  H
  H207     1.0000 25.67554  33.03669  10.70158  Biso   1.000  H
  H208     1.0000 9.01004  0.29431  5.96392  Biso   1.000  H
  H209     1.0000 10.70158  7.65546  0.29431  Biso   1.000  H
  H210     1.0000 5.96392  7.65546  16.37119  Biso   1.000  H
  H211     1.0000 27.36708  25.67554  16.37119  Biso   1.000  H
  H212     1.0000 22.62942  25.67554  0.29431  Biso   1.000  H
  H213     1.0000 10.70158  0.29431  7.65546  Biso   1.000  H
  H214     1.0000 22.62942  33.03669  7.65546  Biso   1.000  H
  H215     1.0000 27.36708  33.03669  9.01004  Biso   1.000  H
  H216     1.0000 5.96392  0.29431  9.01004  Biso   1.000  H
  H217     1.0000 0.29431  7.65546  10.70158  Biso   1.000  H
  H218     1.0000 16.37119  7.65546  5.96392  Biso   1.000  H
  H219     1.0000 33.03669  25.67554  10.70158  Biso   1.000  H
  H220     1.0000 16.95981  25.67554  5.96392  Biso   1.000  H
  H221     1.0000 24.32096  27.36708  0.29431  Biso   1.000  H
  H222     1.0000 7.65546  5.96392  16.37119  Biso   1.000  H
  H223     1.0000 25.67554  27.36708  16.37119  Biso   1.000  H
  H224     1.0000 9.01004  5.96392  0.29431  Biso   1.000  H
  C241     1.0000 16.86549  29.42627  11.05756  Biso   1.000  C
  C242     1.0000 16.46551  3.90473  11.05756  Biso   1.000  C
  C243     1.0000 33.13101  29.42627  5.60794  Biso   1.000  C
  C244     1.0000 0.19999  3.90473  5.60794  Biso   1.000  C
  C245     1.0000 11.05756  0.19999  12.76077  Biso   1.000  C
  C246     1.0000 27.72306  33.13101  3.90473  Biso   1.000  C
  C247     1.0000 22.27344  33.13101  12.76077  Biso   1.000  C
  C248     1.0000 5.60794  0.19999  3.90473  Biso   1.000  C
  C249     1.0000 12.76077  11.05756  0.19999  Biso   1.000  C
  C250     1.0000 3.90473  11.05756  16.46551  Biso   1.000  C
  C251     1.0000 29.42627  22.27344  16.46551  Biso   1.000  C
  C252     1.0000 20.57023  22.27344  0.19999  Biso   1.000  C
  C253     1.0000 12.76077  0.19999  11.05756  Biso   1.000  C
  C254     1.0000 20.57023  33.13101  11.05756  Biso   1.000  C
  C255     1.0000 29.42627  33.13101  5.60794  Biso   1.000  C
  C256     1.0000 3.90473  0.19999  5.60794  Biso   1.000  C
  C257     1.0000 0.19999  11.05756  12.76077  Biso   1.000  C
  C258     1.0000 16.46551  11.05756  3.90473  Biso   1.000  C
  C259     1.0000 33.13101  22.27344  12.76077  Biso   1.000  C
  C260     1.0000 16.86549  22.27344  3.90473  Biso   1.000  C
  C261     1.0000 27.72306  29.42627  0.19999  Biso   1.000  C
  C262     1.0000 11.05756  3.90473  16.46551  Biso   1.000  C
  C263     1.0000 22.27344  29.42627  16.46551  Biso   1.000  C
  C264     1.0000 5.60794  3.90473  0.19999  Biso   1.000  C
  C265     1.0000 16.91048  28.44134  10.07763  Biso   1.000  C
  C266     1.0000 16.42052  4.88966  10.07763  Biso   1.000  C
  C267     1.0000 33.08602  28.44134  6.58787  Biso   1.000  C
  C268     1.0000 0.24498  4.88966  6.58787  Biso   1.000  C
  C269     1.0000 10.07763  0.24498  11.77584  Biso   1.000  C
  C270     1.0000 26.74313  33.08602  4.88966  Biso   1.000  C
  C271     1.0000 23.25337  33.08602  11.77584  Biso   1.000  C
  C272     1.0000 6.58787  0.24498  4.88966  Biso   1.000  C
  C273     1.0000 11.77584  10.07763  0.24498  Biso   1.000  C
  C274     1.0000 4.88966  10.07763  16.42052  Biso   1.000  C
  C275     1.0000 28.44134  23.25337  16.42052  Biso   1.000  C
  C276     1.0000 21.55516  23.25337  0.24498  Biso   1.000  C
  C277     1.0000 11.77584  0.24498  10.07763  Biso   1.000  C
  C278     1.0000 21.55516  33.08602  10.07763  Biso   1.000  C
  C279     1.0000 28.44134  33.08602  6.58787  Biso   1.000  C
  C280     1.0000 4.88966  0.24498  6.58787  Biso   1.000  C
  C281     1.0000 0.24498  10.07763  11.77584  Biso   1.000  C
  C282     1.0000 16.42052  10.07763  4.88966  Biso   1.000  C
  C283     1.0000 33.08602  23.25337  11.77584  Biso   1.000  C
  C284     1.0000 16.91048  23.25337  4.88966  Biso   1.000  C
  C285     1.0000 26.74313  28.44134  0.24498  Biso   1.000  C
  C286     1.0000 10.07763  4.88966  16.42052  Biso   1.000  C
  C287     1.0000 23.25337  28.44134  16.42052  Biso   1.000  C
  C288     1.0000 6.58787  4.88966  0.24498  Biso   1.000  C
  C289     1.0000 16.95881  26.33316  7.98111  Biso   1.000  C
  C290     1.0000 16.37219  6.99784  7.98111  Biso   1.000  C
  C291     1.0000 33.03769  26.33316  8.68439  Biso   1.000  C
  C292     1.0000 0.29331  6.99784  8.68439  Biso   1.000  C
  C293     1.0000 7.98111  0.29331  9.66766  Biso   1.000  C
  C294     1.0000 24.64661  33.03769  6.99784  Biso   1.000  C
  C295     1.0000 25.34989  33.03769  9.66766  Biso   1.000  C
  C296     1.0000 8.68439  0.29331  6.99784  Biso   1.000  C
  C297     1.0000 9.66766  7.98111  0.29331  Biso   1.000  C
  C298     1.0000 6.99784  7.98111  16.37219  Biso   1.000  C
  C299     1.0000 26.33316  25.34989  16.37219  Biso   1.000  C
  C300     1.0000 23.66334  25.34989  0.29331  Biso   1.000  C
  C301     1.0000 9.66766  0.29331  7.98111  Biso   1.000  C
  C302     1.0000 23.66334  33.03769  7.98111  Biso   1.000  C
  C303     1.0000 26.33316  33.03769  8.68439  Biso   1.000  C
  C304     1.0000 6.99784  0.29331  8.68439  Biso   1.000  C
  C305     1.0000 0.29331  7.98111  9.66766  Biso   1.000  C
  C306     1.0000 16.37219  7.98111  6.99784  Biso   1.000  C
  C307     1.0000 33.03769  25.34989  9.66766  Biso   1.000  C
  C308     1.0000 16.95881  25.34989  6.99784  Biso   1.000  C
  C309     1.0000 24.64661  26.33316  0.29331  Biso   1.000  C
  C310     1.0000 7.98111  6.99784  16.37219  Biso   1.000  C
  C311     1.0000 25.34989  26.33316  16.37219  Biso   1.000  C
  C312     1.0000 8.68439  6.99784  0.29331  Biso   1.000  C
  O65      1.0000 16.72050  31.34781  13.08408  Biso   1.000  O
  O66      1.0000 16.61050  1.98319  13.08408  Biso   1.000  O
  O67      1.0000 33.27600  31.34781  3.58142  Biso   1.000  O
  O68      1.0000 0.05500  1.98319  3.58142  Biso   1.000  O
  O69      1.0000 13.08408  0.05500  14.68231  Biso   1.000  O
  O70      1.0000 29.74958  33.27600  1.98319  Biso   1.000  O
  O71      1.0000 20.24692  33.27600  14.68231  Biso   1.000  O
  O72      1.0000 3.58142  0.05500  1.98319  Biso   1.000  O
  O73      1.0000 14.68231  13.08408  0.05500  Biso   1.000  O
  O74      1.0000 1.98319  13.08408  16.61050  Biso   1.000  O
  O75      1.0000 31.34781  20.24692  16.61050  Biso   1.000  O
  O76      1.0000 18.64869  20.24692  0.05500  Biso   1.000  O
  O77      1.0000 14.68231  0.05500  13.08408  Biso   1.000  O
  O78      1.0000 18.64869  33.27600  13.08408  Biso   1.000  O
  O79      1.0000 31.34781  33.27600  3.58142  Biso   1.000  O
  O80      1.0000 1.98319  0.05500  3.58142  Biso   1.000  O
  O81      1.0000 0.05500  13.08408  14.68231  Biso   1.000  O
  O82      1.0000 16.61050  13.08408  1.98319  Biso   1.000  O
  O83      1.0000 33.27600  20.24692  14.68231  Biso   1.000  O
  O84      1.0000 16.72050  20.24692  1.98319  Biso   1.000  O
  O85      1.0000 29.74958  31.34781  0.05500  Biso   1.000  O
  O86      1.0000 13.08408  1.98319  16.61050  Biso   1.000  O
  O87      1.0000 20.24692  31.34781  16.61050  Biso   1.000  O
  O88      1.0000 3.58142  1.98319  0.05500  Biso   1.000  O
  H225     1.0000 18.63203  1.96653  14.69897  Biso   1.000  H
  H226     1.0000 31.36447  14.69897  14.69897  Biso   1.000  H
  H227     1.0000 31.36447  1.96653  1.96653  Biso   1.000  H
  H228     1.0000 18.63203  14.69897  1.96653  Biso   1.000  H
  C313     1.0000 16.76149  30.13522  13.46972  Biso   1.000  C
  C314     1.0000 33.23501  19.86128  13.46972  Biso   1.000  C
  C315     1.0000 33.23501  30.13522  3.19578  Biso   1.000  C
  C316     1.0000 16.76149  19.86128  3.19578  Biso   1.000  C
  C317     1.0000 30.13522  16.76149  13.46972  Biso   1.000  C
  C318     1.0000 30.13522  33.23501  3.19578  Biso   1.000  C
  C319     1.0000 19.86128  33.23501  13.46972  Biso   1.000  C
  C320     1.0000 19.86128  16.76149  3.19578  Biso   1.000  C
  C321     1.0000 30.13522  30.13522  0.09599  Biso   1.000  C
  C322     1.0000 19.86128  30.13522  16.56951  Biso   1.000  C
  C323     1.0000 30.13522  19.86128  16.56951  Biso   1.000  C
  C324     1.0000 19.86128  19.86128  0.09599  Biso   1.000  C
  C325     1.0000 16.83815  29.07863  12.41313  Biso   1.000  C
  C326     1.0000 33.15835  20.91787  12.41313  Biso   1.000  C
  C327     1.0000 33.15835  29.07863  4.25237  Biso   1.000  C
  C328     1.0000 16.83815  20.91787  4.25237  Biso   1.000  C
  C329     1.0000 29.07863  16.83815  12.41313  Biso   1.000  C
  C330     1.0000 29.07863  33.15835  4.25237  Biso   1.000  C
  C331     1.0000 20.91787  33.15835  12.41313  Biso   1.000  C
  C332     1.0000 20.91787  16.83815  4.25237  Biso   1.000  C
  C333     1.0000 29.07863  29.07863  0.17265  Biso   1.000  C
  C334     1.0000 20.91787  29.07863  16.49285  Biso   1.000  C
  C335     1.0000 29.07863  20.91787  16.49285  Biso   1.000  C
  C336     1.0000 20.91787  20.91787  0.17265  Biso   1.000  C
  C337     1.0000 16.95315  26.01751  9.35201  Biso   1.000  C
  C338     1.0000 33.04335  23.97899  9.35201  Biso   1.000  C
  C339     1.0000 33.04335  26.01751  7.31349  Biso   1.000  C
  C340     1.0000 16.95315  23.97899  7.31349  Biso   1.000  C
  C341     1.0000 26.01751  16.95315  9.35201  Biso   1.000  C
  C342     1.0000 26.01751  33.04335  7.31349  Biso   1.000  C
  C343     1.0000 23.97899  33.04335  9.35201  Biso   1.000  C
  C344     1.0000 23.97899  16.95315  7.31349  Biso   1.000  C
  C345     1.0000 26.01751  26.01751  0.28765  Biso   1.000  C
  C346     1.0000 23.97899  26.01751  16.37785  Biso   1.000  C
  C347     1.0000 26.01751  23.97899  16.37785  Biso   1.000  C
  C348     1.0000 23.97899  23.97899  0.28765  Biso   1.000  C
  C349     1.0000 16.92881  27.07144  10.40594  Biso   1.000  C
  C350     1.0000 33.06769  22.92506  10.40594  Biso   1.000  C
  C351     1.0000 33.06769  27.07144  6.25956  Biso   1.000  C
  C352     1.0000 16.92881  22.92506  6.25956  Biso   1.000  C
  C353     1.0000 27.07144  16.92881  10.40594  Biso   1.000  C
  C354     1.0000 27.07144  33.06769  6.25956  Biso   1.000  C
  C355     1.0000 22.92506  33.06769  10.40594  Biso   1.000  C
  C356     1.0000 22.92506  16.92881  6.25956  Biso   1.000  C
  C357     1.0000 27.07144  27.07144  0.26331  Biso   1.000  C
  C358     1.0000 22.92506  27.07144  16.40219  Biso   1.000  C
  C359     1.0000 27.07144  22.92506  16.40219  Biso   1.000  C
  C360     1.0000 22.92506  22.92506  0.26331  Biso   1.000  C
  O89      1.0000 31.92010  15.25460  15.25460  Biso   1.000  O
  O90      1.0000 18.07640  1.41090  15.25460  Biso   1.000  O
  O91      1.0000 18.07640  15.25460  1.41090  Biso   1.000  O
  O92      1.0000 31.92010  1.41090  1.41090  Biso   1.000  O
  O93      1.0000 17.70309  17.70309  1.03759  Biso   1.000  O
  O94      1.0000 32.29341  32.29341  1.03759  Biso   1.000  O
  O95      1.0000 32.29341  17.70309  15.62791  Biso   1.000  O
  O96      1.0000 17.70309  32.29341  15.62791  Biso   1.000  O
  Zr13     1.0000 14.14234  0.00000  16.66550  Biso   1.000  Zr
  Zr14     1.0000 19.18866  0.00000  16.66550  Biso   1.000  Zr
  Zr15     1.0000 0.00000  14.14234  16.66550  Biso   1.000  Zr
  Zr16     1.0000 0.00000  19.18866  16.66550  Biso   1.000  Zr
  Zr17     1.0000 16.66550  0.00000  14.14234  Biso   1.000  Zr
  Zr18     1.0000 0.00000  0.00000  2.52316  Biso   1.000  Zr
  H229     1.0000 16.84615  13.81003  27.44875  Biso   1.000  H
  H230     1.0000 16.48485  19.52097  27.44875  Biso   1.000  H
  H231     1.0000 33.15035  13.81003  22.54775  Biso   1.000  H
  H232     1.0000 0.18065  19.52097  22.54775  Biso   1.000  H
  H233     1.0000 10.78325  16.84615  30.47553  Biso   1.000  H
  H234     1.0000 27.44875  16.48485  19.52097  Biso   1.000  H
  H235     1.0000 22.54775  16.48485  30.47553  Biso   1.000  H
  H236     1.0000 5.88225  16.84615  19.52097  Biso   1.000  H
  H237     1.0000 13.81003  27.44875  16.84615  Biso   1.000  H
  H238     1.0000 2.85547  27.44875  33.15035  Biso   1.000  H
  H239     1.0000 30.47553  5.88225  33.15035  Biso   1.000  H
  H240     1.0000 19.52097  5.88225  16.84615  Biso   1.000  H
  H241     1.0000 13.81003  16.84615  27.44875  Biso   1.000  H
  H242     1.0000 19.52097  16.48485  27.44875  Biso   1.000  H
  H243     1.0000 30.47553  16.48485  22.54775  Biso   1.000  H
  H244     1.0000 2.85547  16.84615  22.54775  Biso   1.000  H
  H245     1.0000 0.18065  27.44875  30.47553  Biso   1.000  H
  H246     1.0000 16.48485  27.44875  19.52097  Biso   1.000  H
  H247     1.0000 33.15035  5.88225  30.47553  Biso   1.000  H
  H248     1.0000 16.84615  5.88225  19.52097  Biso   1.000  H
  H249     1.0000 27.44875  13.81003  16.84615  Biso   1.000  H
  H250     1.0000 10.78325  19.52097  33.15035  Biso   1.000  H
  H251     1.0000 22.54775  13.81003  33.15035  Biso   1.000  H
  H252     1.0000 5.88225  19.52097  16.84615  Biso   1.000  H
  H253     1.0000 16.92715  12.09249  25.70653  Biso   1.000  H
  H254     1.0000 16.40385  21.23851  25.70653  Biso   1.000  H
  H255     1.0000 33.06935  12.09249  24.28997  Biso   1.000  H
  H256     1.0000 0.26165  21.23851  24.28997  Biso   1.000  H
  H257     1.0000 9.04103  16.92715  28.75799  Biso   1.000  H
  H258     1.0000 25.70653  16.40385  21.23851  Biso   1.000  H
  H259     1.0000 24.28997  16.40385  28.75799  Biso   1.000  H
  H260     1.0000 7.62447  16.92715  21.23851  Biso   1.000  H
  H261     1.0000 12.09249  25.70653  16.92715  Biso   1.000  H
  H262     1.0000 4.57301  25.70653  33.06935  Biso   1.000  H
  H263     1.0000 28.75799  7.62447  33.06935  Biso   1.000  H
  H264     1.0000 21.23851  7.62447  16.92715  Biso   1.000  H
  H265     1.0000 12.09249  16.92715  25.70653  Biso   1.000  H
  H266     1.0000 21.23851  16.40385  25.70653  Biso   1.000  H
  H267     1.0000 28.75799  16.40385  24.28997  Biso   1.000  H
  H268     1.0000 4.57301  16.92715  24.28997  Biso   1.000  H
  H269     1.0000 0.26165  25.70653  28.75799  Biso   1.000  H
  H270     1.0000 16.40385  25.70653  21.23851  Biso   1.000  H
  H271     1.0000 33.06935  7.62447  28.75799  Biso   1.000  H
  H272     1.0000 16.92715  7.62447  21.23851  Biso   1.000  H
  H273     1.0000 25.70653  12.09249  16.92715  Biso   1.000  H
  H274     1.0000 9.04103  21.23851  33.06935  Biso   1.000  H
  H275     1.0000 24.28997  12.09249  33.06935  Biso   1.000  H
  H276     1.0000 7.62447  21.23851  16.92715  Biso   1.000  H
  H277     1.0000 16.95981  10.70158  24.32096  Biso   1.000  H
  H278     1.0000 16.37119  22.62942  24.32096  Biso   1.000  H
  H279     1.0000 33.03669  10.70158  25.67554  Biso   1.000  H
  H280     1.0000 0.29431  22.62942  25.67554  Biso   1.000  H
  H281     1.0000 7.65546  16.95981  27.36708  Biso   1.000  H
  H282     1.0000 24.32096  16.37119  22.62942  Biso   1.000  H
  H283     1.0000 25.67554  16.37119  27.36708  Biso   1.000  H
  H284     1.0000 9.01004  16.95981  22.62942  Biso   1.000  H
  H285     1.0000 10.70158  24.32096  16.95981  Biso   1.000  H
  H286     1.0000 5.96392  24.32096  33.03669  Biso   1.000  H
  H287     1.0000 27.36708  9.01004  33.03669  Biso   1.000  H
  H288     1.0000 22.62942  9.01004  16.95981  Biso   1.000  H
  H289     1.0000 10.70158  16.95981  24.32096  Biso   1.000  H
  H290     1.0000 22.62942  16.37119  24.32096  Biso   1.000  H
  H291     1.0000 27.36708  16.37119  25.67554  Biso   1.000  H
  H292     1.0000 5.96392  16.95981  25.67554  Biso   1.000  H
  H293     1.0000 0.29431  24.32096  27.36708  Biso   1.000  H
  H294     1.0000 16.37119  24.32096  22.62942  Biso   1.000  H
  H295     1.0000 33.03669  9.01004  27.36708  Biso   1.000  H
  H296     1.0000 16.95981  9.01004  22.62942  Biso   1.000  H
  H297     1.0000 24.32096  10.70158  16.95981  Biso   1.000  H
  H298     1.0000 7.65546  22.62942  33.03669  Biso   1.000  H
  H299     1.0000 25.67554  10.70158  33.03669  Biso   1.000  H
  H300     1.0000 9.01004  22.62942  16.95981  Biso   1.000  H
  C361     1.0000 16.86549  12.76077  27.72306  Biso   1.000  C
  C362     1.0000 16.46551  20.57023  27.72306  Biso   1.000  C
  C363     1.0000 33.13101  12.76077  22.27344  Biso   1.000  C
  C364     1.0000 0.19999  20.57023  22.27344  Biso   1.000  C
  C365     1.0000 11.05756  16.86549  29.42627  Biso   1.000  C
  C366     1.0000 27.72306  16.46551  20.57023  Biso   1.000  C
  C367     1.0000 22.27344  16.46551  29.42627  Biso   1.000  C
  C368     1.0000 5.60794  16.86549  20.57023  Biso   1.000  C
  C369     1.0000 12.76077  27.72306  16.86549  Biso   1.000  C
  C370     1.0000 3.90473  27.72306  33.13101  Biso   1.000  C
  C371     1.0000 29.42627  5.60794  33.13101  Biso   1.000  C
  C372     1.0000 20.57023  5.60794  16.86549  Biso   1.000  C
  C373     1.0000 12.76077  16.86549  27.72306  Biso   1.000  C
  C374     1.0000 20.57023  16.46551  27.72306  Biso   1.000  C
  C375     1.0000 29.42627  16.46551  22.27344  Biso   1.000  C
  C376     1.0000 3.90473  16.86549  22.27344  Biso   1.000  C
  C377     1.0000 0.19999  27.72306  29.42627  Biso   1.000  C
  C378     1.0000 16.46551  27.72306  20.57023  Biso   1.000  C
  C379     1.0000 33.13101  5.60794  29.42627  Biso   1.000  C
  C380     1.0000 16.86549  5.60794  20.57023  Biso   1.000  C
  C381     1.0000 27.72306  12.76077  16.86549  Biso   1.000  C
  C382     1.0000 11.05756  20.57023  33.13101  Biso   1.000  C
  C383     1.0000 22.27344  12.76077  33.13101  Biso   1.000  C
  C384     1.0000 5.60794  20.57023  16.86549  Biso   1.000  C
  C385     1.0000 16.91048  11.77584  26.74313  Biso   1.000  C
  C386     1.0000 16.42052  21.55516  26.74313  Biso   1.000  C
  C387     1.0000 33.08602  11.77584  23.25337  Biso   1.000  C
  C388     1.0000 0.24498  21.55516  23.25337  Biso   1.000  C
  C389     1.0000 10.07763  16.91048  28.44134  Biso   1.000  C
  C390     1.0000 26.74313  16.42052  21.55516  Biso   1.000  C
  C391     1.0000 23.25337  16.42052  28.44134  Biso   1.000  C
  C392     1.0000 6.58787  16.91048  21.55516  Biso   1.000  C
  C393     1.0000 11.77584  26.74313  16.91048  Biso   1.000  C
  C394     1.0000 4.88966  26.74313  33.08602  Biso   1.000  C
  C395     1.0000 28.44134  6.58787  33.08602  Biso   1.000  C
  C396     1.0000 21.55516  6.58787  16.91048  Biso   1.000  C
  C397     1.0000 11.77584  16.91048  26.74313  Biso   1.000  C
  C398     1.0000 21.55516  16.42052  26.74313  Biso   1.000  C
  C399     1.0000 28.44134  16.42052  23.25337  Biso   1.000  C
  C400     1.0000 4.88966  16.91048  23.25337  Biso   1.000  C
  C401     1.0000 0.24498  26.74313  28.44134  Biso   1.000  C
  C402     1.0000 16.42052  26.74313  21.55516  Biso   1.000  C
  C403     1.0000 33.08602  6.58787  28.44134  Biso   1.000  C
  C404     1.0000 16.91048  6.58787  21.55516  Biso   1.000  C
  C405     1.0000 26.74313  11.77584  16.91048  Biso   1.000  C
  C406     1.0000 10.07763  21.55516  33.08602  Biso   1.000  C
  C407     1.0000 23.25337  11.77584  33.08602  Biso   1.000  C
  C408     1.0000 6.58787  21.55516  16.91048  Biso   1.000  C
  C409     1.0000 16.95881  9.66766  24.64661  Biso   1.000  C
  C410     1.0000 16.37219  23.66334  24.64661  Biso   1.000  C
  C411     1.0000 33.03769  9.66766  25.34989  Biso   1.000  C
  C412     1.0000 0.29331  23.66334  25.34989  Biso   1.000  C
  C413     1.0000 7.98111  16.95881  26.33316  Biso   1.000  C
  C414     1.0000 24.64661  16.37219  23.66334  Biso   1.000  C
  C415     1.0000 25.34989  16.37219  26.33316  Biso   1.000  C
  C416     1.0000 8.68439  16.95881  23.66334  Biso   1.000  C
  C417     1.0000 9.66766  24.64661  16.95881  Biso   1.000  C
  C418     1.0000 6.99784  24.64661  33.03769  Biso   1.000  C
  C419     1.0000 26.33316  8.68439  33.03769  Biso   1.000  C
  C420     1.0000 23.66334  8.68439  16.95881  Biso   1.000  C
  C421     1.0000 9.66766  16.95881  24.64661  Biso   1.000  C
  C422     1.0000 23.66334  16.37219  24.64661  Biso   1.000  C
  C423     1.0000 26.33316  16.37219  25.34989  Biso   1.000  C
  C424     1.0000 6.99784  16.95881  25.34989  Biso   1.000  C
  C425     1.0000 0.29331  24.64661  26.33316  Biso   1.000  C
  C426     1.0000 16.37219  24.64661  23.66334  Biso   1.000  C
  C427     1.0000 33.03769  8.68439  26.33316  Biso   1.000  C
  C428     1.0000 16.95881  8.68439  23.66334  Biso   1.000  C
  C429     1.0000 24.64661  9.66766  16.95881  Biso   1.000  C
  C430     1.0000 7.98111  23.66334  33.03769  Biso   1.000  C
  C431     1.0000 25.34989  9.66766  33.03769  Biso   1.000  C
  C432     1.0000 8.68439  23.66334  16.95881  Biso   1.000  C
  O97      1.0000 16.72050  14.68231  29.74958  Biso   1.000  O
  O98      1.0000 16.61050  18.64869  29.74958  Biso   1.000  O
  O99      1.0000 33.27600  14.68231  20.24692  Biso   1.000  O
  O100     1.0000 0.05500  18.64869  20.24692  Biso   1.000  O
  O101     1.0000 13.08408  16.72050  31.34781  Biso   1.000  O
  O102     1.0000 29.74958  16.61050  18.64869  Biso   1.000  O
  O103     1.0000 20.24692  16.61050  31.34781  Biso   1.000  O
  O104     1.0000 3.58142  16.72050  18.64869  Biso   1.000  O
  O105     1.0000 14.68231  29.74958  16.72050  Biso   1.000  O
  O106     1.0000 1.98319  29.74958  33.27600  Biso   1.000  O
  O107     1.0000 31.34781  3.58142  33.27600  Biso   1.000  O
  O108     1.0000 18.64869  3.58142  16.72050  Biso   1.000  O
  O109     1.0000 14.68231  16.72050  29.74958  Biso   1.000  O
  O110     1.0000 18.64869  16.61050  29.74958  Biso   1.000  O
  O111     1.0000 31.34781  16.61050  20.24692  Biso   1.000  O
  O112     1.0000 1.98319  16.72050  20.24692  Biso   1.000  O
  O113     1.0000 0.05500  29.74958  31.34781  Biso   1.000  O
  O114     1.0000 16.61050  29.74958  18.64869  Biso   1.000  O
  O115     1.0000 33.27600  3.58142  31.34781  Biso   1.000  O
  O116     1.0000 16.72050  3.58142  18.64869  Biso   1.000  O
  O117     1.0000 29.74958  14.68231  16.72050  Biso   1.000  O
  O118     1.0000 13.08408  18.64869  33.27600  Biso   1.000  O
  O119     1.0000 20.24692  14.68231  33.27600  Biso   1.000  O
  O120     1.0000 3.58142  18.64869  16.72050  Biso   1.000  O
  H301     1.0000 18.63203  18.63203  31.36447  Biso   1.000  H
  H302     1.0000 31.36447  31.36447  31.36447  Biso   1.000  H
  H303     1.0000 31.36447  18.63203  18.63203  Biso   1.000  H
  H304     1.0000 18.63203  31.36447  18.63203  Biso   1.000  H
  C433     1.0000 16.76149  13.46972  30.13522  Biso   1.000  C
  C434     1.0000 33.23501  3.19578  30.13522  Biso   1.000  C
  C435     1.0000 33.23501  13.46972  19.86128  Biso   1.000  C
  C436     1.0000 16.76149  3.19578  19.86128  Biso   1.000  C
  C437     1.0000 30.13522  0.09599  30.13522  Biso   1.000  C
  C438     1.0000 30.13522  16.56951  19.86128  Biso   1.000  C
  C439     1.0000 19.86128  16.56951  30.13522  Biso   1.000  C
  C440     1.0000 19.86128  0.09599  19.86128  Biso   1.000  C
  C441     1.0000 30.13522  13.46972  16.76149  Biso   1.000  C
  C442     1.0000 19.86128  13.46972  33.23501  Biso   1.000  C
  C443     1.0000 30.13522  3.19578  33.23501  Biso   1.000  C
  C444     1.0000 19.86128  3.19578  16.76149  Biso   1.000  C
  C445     1.0000 16.83815  12.41313  29.07863  Biso   1.000  C
  C446     1.0000 33.15835  4.25237  29.07863  Biso   1.000  C
  C447     1.0000 33.15835  12.41313  20.91787  Biso   1.000  C
  C448     1.0000 16.83815  4.25237  20.91787  Biso   1.000  C
  C449     1.0000 29.07863  0.17265  29.07863  Biso   1.000  C
  C450     1.0000 29.07863  16.49285  20.91787  Biso   1.000  C
  C451     1.0000 20.91787  16.49285  29.07863  Biso   1.000  C
  C452     1.0000 20.91787  0.17265  20.91787  Biso   1.000  C
  C453     1.0000 29.07863  12.41313  16.83815  Biso   1.000  C
  C454     1.0000 20.91787  12.41313  33.15835  Biso   1.000  C
  C455     1.0000 29.07863  4.25237  33.15835  Biso   1.000  C
  C456     1.0000 20.91787  4.25237  16.83815  Biso   1.000  C
  C457     1.0000 16.95315  9.35201  26.01751  Biso   1.000  C
  C458     1.0000 33.04335  7.31349  26.01751  Biso   1.000  C
  C459     1.0000 33.04335  9.35201  23.97899  Biso   1.000  C
  C460     1.0000 16.95315  7.31349  23.97899  Biso   1.000  C
  C461     1.0000 26.01751  0.28765  26.01751  Biso   1.000  C
  C462     1.0000 26.01751  16.37785  23.97899  Biso   1.000  C
  C463     1.0000 23.97899  16.37785  26.01751  Biso   1.000  C
  C464     1.0000 23.97899  0.28765  23.97899  Biso   1.000  C
  C465     1.0000 26.01751  9.35201  16.95315  Biso   1.000  C
  C466     1.0000 23.97899  9.35201  33.04335  Biso   1.000  C
  C467     1.0000 26.01751  7.31349  33.04335  Biso   1.000  C
  C468     1.0000 23.97899  7.31349  16.95315  Biso   1.000  C
  C469     1.0000 16.92881  10.40594  27.07144  Biso   1.000  C
  C470     1.0000 33.06769  6.25956  27.07144  Biso   1.000  C
  C471     1.0000 33.06769  10.40594  22.92506  Biso   1.000  C
  C472     1.0000 16.92881  6.25956  22.92506  Biso   1.000  C
  C473     1.0000 27.07144  0.26331  27.07144  Biso   1.000  C
  C474     1.0000 27.07144  16.40219  22.92506  Biso   1.000  C
  C475     1.0000 22.92506  16.40219  27.07144  Biso   1.000  C
  C476     1.0000 22.92506  0.26331  22.92506  Biso   1.000  C
  C477     1.0000 27.07144  10.40594  16.92881  Biso   1.000  C
  C478     1.0000 22.92506  10.40594  33.06769  Biso   1.000  C
  C479     1.0000 27.07144  6.25956  33.06769  Biso   1.000  C
  C480     1.0000 22.92506  6.25956  16.92881  Biso   1.000  C
  O121     1.0000 31.92010  31.92010  31.92010  Biso   1.000  O
  O122     1.0000 18.07640  18.07640  31.92010  Biso   1.000  O
  O123     1.0000 18.07640  31.92010  18.07640  Biso   1.000  O
  O124     1.0000 31.92010  18.07640  18.07640  Biso   1.000  O
  O125     1.0000 17.70309  1.03759  17.70309  Biso   1.000  O
  O126     1.0000 32.29341  15.62791  17.70309  Biso   1.000  O
  O127     1.0000 32.29341  1.03759  32.29341  Biso   1.000  O
  O128     1.0000 17.70309  15.62791  32.29341  Biso   1.000  O
  Zr19     1.0000 14.14234  16.66550  0.00000  Biso   1.000  Zr
  Zr20     1.0000 19.18866  16.66550  0.00000  Biso   1.000  Zr
  Zr21     1.0000 0.00000  30.80784  0.00000  Biso   1.000  Zr
  Zr22     1.0000 0.00000  2.52316  0.00000  Biso   1.000  Zr
  Zr23     1.0000 16.66550  16.66550  30.80784  Biso   1.000  Zr
  Zr24     1.0000 0.00000  16.66550  19.18866  Biso   1.000  Zr
