#======================================================================

# CRYSTAL DATA

#----------------------------------------------------------------------

data_VESTA_phase_1


_pd_phase_name                         MOF
_cell_length_a                         14.05600
_cell_length_b                         17.91500
_cell_length_c                         17.91700
_cell_angle_alpha                      100.31200
_cell_angle_beta                       91.95900
_cell_angle_gamma                      91.88900
_symmetry_space_group_name_H-M         "P 1"
_symmetry_Int_Tables_number            1

loop_
_symmetry_equiv_pos_as_xyz
   "x, y, z"

loop_
   _atom_site_label
   _atom_site_fract_x
   _atom_site_fract_y
   _atom_site_fract_z
 _atom_site_charge
 Zn1 0.100662 0.09029 0.91865  0.909062037037
 Zn1 0.899332 0.081408 0.90968  0.909062037037
 Zn1 0.416772 0.293875 0.45975  0.909062037037
 Zn1 0.213265 0.283646 0.45036  0.909062037037
 Zn1 0.583205 0.540289 0.70619  0.909062037037
 Zn1 0.786724 0.549629 0.71670  0.909062037037
 H1 0.849537 0.319289 0.88841  0.113562037037
 H1 0.148314 0.332053 0.94923  0.113562037037
 H1 0.240313 0.446334 0.96274  0.113562037037
 H1 0.205904 0.503769 0.89569  0.113562037037
 H1 0.178294 0.531475 0.99181  0.113562037037
 H1 0.856483 0.457057 0.87979  0.113562037037
 H1 0.852667 0.693165 0.88287  0.113562037037
 H1 0.242723 0.75117 0.93296  0.113562037037
 H1 0.185292 0.701033 0.99693  0.113562037037
 H1 0.192203 0.657206 0.90146  0.113562037037
 H1 0.146876 0.859072 0.92610  0.113562037037
 H1 0.8446 0.832452 0.8834  0.113562037037
 H1 0.250416 0.109766 0.80817  0.113562037037
 H1 0.258408 0.066616 0.02724  0.113562037037
 H1 0.436719 0.060736 0.03016  0.113562037037
 H1 0.428485 0.11101 0.80302  0.113562037037
 H1 0.150473 0.111503 0.68081  0.113562037037
 H1 0.851694 0.050877 0.66776  0.113562037037
 H1 0.759748 0.037399 0.5534  0.113562037037
 H1 0.794154 0.104348 0.49594  0.113562037037
 H1 0.821775 0.0 0.46838  0.113562037037
 H1 0.143578 0.120045 0.54304  0.113562037037
 H1 0.14744 0.117223 0.3069  0.113562037037
 H1 0.757457 0.066922 0.24863  0.113562037037
 H1 0.815003 0.002984 0.29884  0.113562037037
 H1 0.807949 0.098466 0.3426  0.113562037037
 H1 0.853258 0.073773 0.14082  0.113562037037
 H1 0.155476 0.116619 0.16770  0.113562037037
 H1 0.749279 0.191779 0.88985  0.113562037037
 H1 0.741834 0.972932 0.93368  0.113562037037
 H1 0.56355 0.969997 0.93963  0.113562037037
 H1 0.571208 0.196891 0.88866  0.113562037037
 H1 0.467498 0.292074 0.22677  0.113562037037
 H1 0.163506 0.261277 0.20271  0.113562037037
 H1 0.171164 0.260171 0.06320  0.113562037037
 H1 0.504553 0.341476 0.04474  0.113562037037
 H1 0.562065 0.308433 0.12212  0.113562037037
 H1 0.521322 0.243657 0.03916  0.113562037037
 H1 0.532625 0.314877 0.87026  0.113562037037
 H1 0.527308 0.399253 0.83173  0.113562037037
 H1 0.46678 0.39059 0.91606  0.113562037037
 H1 0.178783 0.242976 0.82446  0.113562037037
 H1 0.172835 0.248043 0.68606  0.113562037037
 H1 0.45334 0.355202 0.71010  0.113562037037
 H1 0.474805 0.058015 0.46850  0.113562037037
 H1 0.17272 0.038707 0.42114  0.113562037037
 H1 0.173383 0.901529 0.42907  0.113562037037
 H1 0.563286 0.952794 0.49122  0.113562037037
 H1 0.499614 0.883017 0.5314  0.113562037037
 H1 0.520837 0.865623 0.43382  0.113562037037
 H1 0.175043 0.657169 0.41990  0.113562037037
 H1 0.526132 0.709282 0.48505  0.113562037037
 H1 0.465663 0.748658 0.56654  0.113562037037
 H1 0.530934 0.664689 0.56610  0.113562037037
 H1 0.455365 0.544088 0.5255  0.113562037037
 H1 0.172428 0.518101 0.42287  0.113562037037
 H1 0.557034 0.216891 0.35756  0.113562037037
 H1 0.58349 0.377927 0.55518  0.113562037037
 H1 0.760135 0.377643 0.55581  0.113562037037
 H1 0.733947 0.210251 0.3489  0.113562037037
 H1 0.887835 0.292734 0.57306  0.113562037037
 H1 0.877266 0.283652 0.32999  0.113562037037
 H1 0.054793 0.278338 0.33451  0.113562037037
 H1 0.065457 0.287315 0.56687  0.113562037037
 H1 0.532381 0.773329 0.70814  0.113562037037
 H1 0.836372 0.79723 0.73904  0.113562037037
 H1 0.828642 0.936749 0.74011  0.113562037037
 H1 0.495253 0.955325 0.65855  0.113562037037
 H1 0.437763 0.87801 0.69159  0.113562037037
 H1 0.478441 0.960995 0.75635  0.113562037037
 H1 0.467188 0.130177 0.68527  0.113562037037
 H1 0.472386 0.168507 0.60079  0.113562037037
 H1 0.532804 0.084092 0.60957  0.113562037037
 H1 0.821226 0.175342 0.75683  0.113562037037
 H1 0.827222 0.313768 0.75180  0.113562037037
 H1 0.546518 0.29011 0.64479  0.113562037037
 H1 0.525208 0.53154 0.9420  0.113562037037
 H1 0.827313 0.578617 0.96160  0.113562037037
 H1 0.826633 0.570769 0.09877  0.113562037037
 H1 0.436718 0.508969 0.04723  0.113562037037
 H1 0.500361 0.468772 0.11712  0.113562037037
 H1 0.479168 0.56643 0.13437  0.113562037037
 H1 0.824744 0.580496 0.34322  0.113562037037
 H1 0.473724 0.515185 0.29077  0.113562037037
 H1 0.53434 0.43371 0.25145  0.113562037037
 H1 0.469116 0.434139 0.33537  0.113562037037
 H1 0.544608 0.474702 0.45598  0.113562037037
 H1 0.827362 0.577504 0.4822  0.113562037037
 H1 0.442885 0.642516 0.78315  0.113562037037
 H1 0.416548 0.444828 0.62220  0.113562037037
 H1 0.239902 0.444169 0.6224  0.113562037037
 H1 0.265969 0.651107 0.78978  0.113562037037
 H1 0.112363 0.4269 0.70727  0.113562037037
 H1 0.122479 0.670004 0.71650  0.113562037037
 H1 0.944989 0.66545 0.72192  0.113562037037
 H1 0.934758 0.433059 0.71282  0.113562037037
 C1 0.996631 0.233971 0.92188  0.672612037037
 C2 0.998712 0.317222 0.91946  0.0175194179894
 C3 0.916212 0.352647 0.90010  -0.127191712963
 C3 0.084674 0.360193 0.93451  -0.127191712963
 C2 0.090676 0.437273 0.93094  0.0175194179894
 C4 0.183894 0.481825 0.94636  -0.34651212963
 C3 0.91989 0.429255 0.89573  -0.127191712963
 C2 0.006429 0.472677 0.91174  0.0175194179894
 C5 0.008133 0.551241 0.90958  -0.0901421296296
 C5 0.00739 0.61939 0.90922  -0.0901421296296
 C2 0.004474 0.698006 0.90795  0.0175194179894
 C3 0.916603 0.730157 0.8938  -0.127191712963
 C2 0.089184 0.744966 0.92054  0.0175194179894
 C4 0.182504 0.712167 0.93840  -0.34651212963
 C3 0.082956 0.821894 0.9174  -0.127191712963
 C3 0.912292 0.807388 0.89339  -0.127191712963
 C2 0.995555 0.85404 0.90470  0.0175194179894
 C1 0.991437 0.937619 0.90444  0.672612037037
 C6 0.295088 0.099998 0.85605  0.175753703704
 C6 0.299549 0.07451 0.97859  0.175753703704
 C3 0.398272 0.07149 0.97958  -0.127191712963
 C3 0.39375 0.100117 0.85364  -0.127191712963
 C2 0.447388 0.084971 0.91617  0.0175194179894
 C1 0.003343 0.078191 0.7660  0.672612037037
 C2 0.001284 0.080584 0.68275  0.0175194179894
 C3 0.083802 0.099848 0.64740  -0.127191712963
 C3 0.915344 0.065559 0.63969  -0.127191712963
 C2 0.909376 0.069088 0.56260  0.0175194179894
 C4 0.816171 0.053694 0.51797  -0.34651212963
 C3 0.080159 0.104174 0.57078  -0.127191712963
 C2 0.993631 0.088218 0.52728  0.0175194179894
 C5 0.991956 0.090382 0.44873  -0.0901421296296
 C5 0.992764 0.090769 0.38059  -0.0901421296296
 C2 0.995682 0.092041 0.30199  0.0175194179894
 C3 0.083516 0.106207 0.26992  -0.127191712963
 C2 0.910979 0.079397 0.25497  0.0175194179894
 C4 0.817695 0.061508 0.28769  -0.34651212963
 C3 0.917178 0.082424 0.17805  -0.127191712963
 C3 0.087804 0.106632 0.19269  -0.127191712963
 C2 0.004546 0.095249 0.14597  0.0175194179894
 C1 0.008622 0.095514 0.06240  0.672612037037
 C6 0.704741 0.143947 0.89979  0.175753703704
 C6 0.70059 0.021544 0.92565  0.175753703704
 C3 0.601878 0.020546 0.92871  -0.127191712963
 C3 0.606074 0.146338 0.89970  -0.127191712963
 C2 0.552599 0.083876 0.91505  0.0175194179894
 C1 0.311451 0.278896 0.30684  0.672612037037
 C2 0.315283 0.277142 0.22304  0.0175194179894
 C3 0.403227 0.285469 0.19006  -0.127191712963
 C3 0.2315 0.26826 0.1770  -0.127191712963
 C3 0.235621 0.268308 0.09976  -0.127191712963
 C2 0.409717 0.286797 0.11287  0.0175194179894
 C4 0.504413 0.295798 0.0783  -0.34651212963
 C2 0.324024 0.27892 0.06710  0.0175194179894
 C5 0.325955 0.283273 0.98919  -0.0901421296296
 C5 0.324206 0.289318 0.92231  -0.0901421296296
 C2 0.320511 0.295202 0.84466  0.0175194179894
 C2 0.398736 0.328468 0.81247  0.0175194179894
 C4 0.485725 0.360394 0.85999  -0.34651212963
 C3 0.238587 0.267491 0.79869  -0.127191712963
 C3 0.235283 0.270326 0.72172  -0.127191712963
 C3 0.393545 0.329847 0.73493  -0.127191712963
 C2 0.313846 0.299993 0.68875  0.0175194179894
 C1 0.313817 0.298215 0.60486  0.672612037037
 C1 0.32312 0.140706 0.44493  0.672612037037
 C2 0.323978 0.057085 0.44529  0.0175194179894
 C3 0.409248 0.022801 0.46015  -0.127191712963
 C3 0.238939 0.012597 0.43333  -0.127191712963
 C3 0.239427 0.936106 0.43777  -0.127191712963
 C2 0.41179 0.946103 0.46528  0.0175194179894
 C4 0.503806 0.910484 0.48141  -0.34651212963
 C2 0.324766 0.901803 0.45453  0.0175194179894
 C5 0.32272 0.824028 0.46053  -0.0901421296296
 C5 0.31943 0.7568 0.46559  -0.0901421296296
 C2 0.317421 0.678699 0.47030  0.0175194179894
 C3 0.236204 0.631721 0.44304  -0.127191712963
 C2 0.397452 0.6466 0.5015  0.0175194179894
 C4 0.484637 0.694633 0.53183  -0.34651212963
 C3 0.394115 0.568768 0.50182  -0.127191712963
 C3 0.234592 0.554452 0.44448  -0.127191712963
 C2 0.314643 0.521945 0.47266  0.0175194179894
 C1 0.316412 0.437907 0.46975  0.672612037037
 C6 0.605362 0.251324 0.39992  0.175753703704
 C6 0.619476 0.340792 0.51103  0.175753703704
 C3 0.718355 0.3401 0.51118  -0.127191712963
 C3 0.703566 0.248353 0.3955  -0.127191712963
 C2 0.762434 0.292749 0.4527  0.0175194179894
 C2 0.867312 0.289395 0.45171  0.0175194179894
 C3 0.921913 0.290772 0.51904  -0.127191712963
 C3 0.915729 0.284354 0.38395  -0.127191712963
 C6 0.014437 0.281859 0.38578  0.175753703704
 C6 0.020291 0.28736 0.51625  0.175753703704
 C1 0.688492 0.693167 0.72129  0.672612037037
 C2 0.684602 0.776983 0.72310  0.0175194179894
 C3 0.596634 0.810013 0.71476  -0.127191712963
 C3 0.768363 0.822946 0.73203  -0.127191712963
 C3 0.764198 0.900226 0.73195  -0.127191712963
 C2 0.590104 0.887204 0.7133  0.0175194179894
 C4 0.49539 0.921774 0.70426  -0.34651212963
 C2 0.675777 0.932925 0.72126  0.0175194179894
 C5 0.673852 0.010844 0.71679  -0.0901421296296
 C5 0.675647 0.0777 0.71064  -0.0901421296296
 C2 0.679381 0.155341 0.70470  0.0175194179894
 C2 0.601104 0.187647 0.67150  0.0175194179894
 C4 0.514002 0.140245 0.63968  -0.34651212963
 C3 0.761388 0.201198 0.73236  -0.127191712963
 C3 0.764731 0.278178 0.72953  -0.127191712963
 C3 0.606349 0.265188 0.67010  -0.127191712963
 C2 0.68613 0.311262 0.69992  0.0175194179894
 C1 0.686166 0.395178 0.70183  0.672612037037
 C1 0.676883 0.55501 0.85950  0.672612037037
 C2 0.676043 0.554604 0.94311  0.0175194179894
 C3 0.590774 0.539835 0.97734  -0.127191712963
 C3 0.76109 0.566496 0.98766  -0.127191712963
 C3 0.760589 0.562122 0.06414  -0.127191712963
 C2 0.588217 0.534776 0.05403  0.0175194179894
 C4 0.496194 0.518766 0.08958  -0.34651212963
 C2 0.675243 0.54549 0.09839  0.0175194179894
 C5 0.677265 0.539596 0.17618  -0.0901421296296
 C5 0.680501 0.534633 0.24343  -0.0901421296296
 C2 0.682472 0.530001 0.32154  0.0175194179894
 C3 0.763628 0.557313 0.36860  -0.127191712963
 C2 0.602481 0.498745 0.35355  0.0175194179894
 C4 0.515329 0.468424 0.30545  -0.34651212963
 C3 0.605814 0.498458 0.43137  -0.127191712963
 C3 0.765237 0.555869 0.44586  -0.127191712963
 C2 0.685242 0.527625 0.47827  0.0175194179894
 C1 0.68347 0.530398 0.5622  0.672612037037
 C6 0.39458 0.600139 0.74873  0.175753703704
 C6 0.380537 0.488995 0.65930  0.175753703704
 C3 0.28166 0.488826 0.65999  -0.127191712963
 C3 0.296373 0.604481 0.75169  -0.127191712963
 C2 0.237539 0.547305 0.70731  0.0175194179894
 C2 0.132667 0.548272 0.71069  0.0175194179894
 C3 0.078187 0.480919 0.70929  -0.127191712963
 C3 0.084127 0.61603 0.71579  -0.127191712963
 C6 0.985433 0.614185 0.71835  0.175753703704
 C6 0.979815 0.483694 0.71278  0.175753703704
 N1 0.248464 0.087967 0.91760  -0.292867962963
 N1 0.751524 0.082465 0.91199  -0.292867962963
 N1 0.563605 0.296642 0.45693  -0.292867962963
 N1 0.06629 0.283394 0.45083  -0.292867962963
 N1 0.436371 0.543124 0.70343  -0.292867962963
 N1 0.933698 0.549121 0.71682  -0.292867962963
 O1 0.070435 0.974261 0.90299  -0.590427962963
 O1 0.909113 0.965771 0.90613  -0.590427962963
 O1 0.916506 0.197468 0.90930  -0.590427962963
 O1 0.075992 0.205348 0.93523  -0.590427962963
 O1 0.929593 0.097003 0.02573  -0.590427962963
 O1 0.090927 0.093808 0.03429  -0.590427962963
 O1 0.083471 0.090716 0.80256  -0.590427962963
 O1 0.92399 0.064901 0.79457  -0.590427962963
 O1 0.391062 0.284557 0.34422  -0.590427962963
 O1 0.229444 0.275188 0.33458  -0.590427962963
 O1 0.394912 0.303414 0.57582  -0.590427962963
 O1 0.233319 0.291629 0.56872  -0.590427962963
 O1 0.403287 0.177216 0.45062  -0.590427962963
 O1 0.241637 0.169457 0.44040  -0.590427962963
 O1 0.398257 0.409625 0.47454  -0.590427962963
 O1 0.236879 0.400543 0.46256  -0.590427962963
 O1 0.608912 0.655803 0.71558  -0.590427962963
 O1 0.770532 0.665389 0.72498  -0.590427962963
 O1 0.605058 0.424277 0.6966  -0.590427962963
 O1 0.76665 0.43129 0.70862  -0.590427962963
 O1 0.596727 0.549363 0.82293  -0.590427962963
 O1 0.758367 0.559577 0.8308  -0.590427962963
 O1 0.601607 0.525581 0.59045  -0.590427962963
 O1 0.762987 0.537464 0.59971  -0.590427962963
