#======================================================================

# CRYSTAL DATA

#----------------------------------------------------------------------

data_VESTA_phase_1


_pd_phase_name                         MOF
_cell_length_a                         17.73900
_cell_length_b                         17.71900
_cell_length_c                         17.71300
_cell_angle_alpha                      96.74100
_cell_angle_beta                       96.79600
_cell_angle_gamma                      96.63900
_symmetry_space_group_name_H-M         "P 1"
_symmetry_Int_Tables_number            1

loop_
_symmetry_equiv_pos_as_xyz
   "x, y, z"

loop_
   _atom_site_label
   _atom_site_fract_x
   _atom_site_fract_y
   _atom_site_fract_z
 _atom_site_charge
 Cu1 0.305274 0.904094 0.90378  0.926746282051
 Cu1 0.90483 0.304952 0.9038  0.926746282051
 Cu1 0.904537 0.904423 0.30435  0.926746282051
 Cu1 0.855821 0.171146 0.85430  0.926746282051
 Cu1 0.8552 0.854965 0.1704  0.926746282051
 Cu1 0.171827 0.854659 0.8538  0.926746282051
 H1 0.211662 0.478167 0.81860  0.104181043956
 H1 0.18088 0.611138 0.81811  0.104181043956
 H1 0.4318 0.565347 0.94886  0.104181043956
 H1 0.402049 0.698209 0.94346  0.104181043956
 H1 0.22538 0.386949 0.89151  0.104181043956
 H1 0.142703 0.305456 0.89157  0.104181043956
 H1 0.819582 0.210793 0.47748  0.104181043956
 H1 0.818771 0.179997 0.61047  0.104181043956
 H1 0.949435 0.430945 0.56535  0.104181043956
 H1 0.943768 0.401189 0.69820  0.104181043956
 H1 0.89323 0.224639 0.38655  0.104181043956
 H1 0.893411 0.142066 0.30489  0.104181043956
 H1 0.478774 0.82253 0.20761  0.104181043956
 H1 0.611591 0.822212 0.17702  0.104181043956
 H1 0.565943 0.94998 0.42939  0.104181043956
 H1 0.698666 0.94472 0.39977  0.104181043956
 H1 0.386749 0.893805 0.22308  0.104181043956
 H1 0.304646 0.890142 0.14049  0.104181043956
 H1 0.479263 0.208727 0.82170  0.104181043956
 H1 0.612161 0.178172 0.82107  0.104181043956
 H1 0.566339 0.430168 0.94958  0.104181043956
 H1 0.699089 0.400572 0.94404  0.104181043956
 H1 0.387577 0.223865 0.8934  0.104181043956
 H1 0.30556 0.141356 0.89102  0.104181043956
 H1 0.212111 0.817376 0.47765  0.104181043956
 H1 0.181661 0.817344 0.61071  0.104181043956
 H1 0.431666 0.94864 0.56459  0.104181043956
 H1 0.402297 0.943696 0.69757  0.104181043956
 H1 0.224874 0.890067 0.38609  0.104181043956
 H1 0.14206 0.891556 0.30450  0.104181043956
 H1 0.821582 0.478514 0.20918  0.104181043956
 H1 0.820406 0.611521 0.17864  0.104181043956
 H1 0.950035 0.566 0.43041  0.104181043956
 H1 0.944072 0.698862 0.40081  0.104181043956
 H1 0.894864 0.387306 0.22393  0.104181043956
 H1 0.893345 0.305337 0.14123  0.104181043956
 H1 0.462024 0.460088 0.87929  0.104181043956
 H1 0.065168 0.065008 0.87046  0.104181043956
 H1 0.879532 0.461293 0.46019  0.104181043956
 H1 0.873051 0.06475 0.0642  0.104181043956
 H1 0.462077 0.879293 0.45931  0.104181043956
 H1 0.064259 0.870623 0.06381  0.104181043956
 C1 0.289504 0.662961 0.88075  -0.0205493846154
 C2 0.253136 0.526014 0.84761  -0.0883606227106
 C2 0.235819 0.600414 0.84633  -0.0883606227106
 C1 0.32393 0.511644 0.88422  -0.0205493846154
 C2 0.377206 0.574922 0.9187  -0.0883606227106
 C2 0.360614 0.64949 0.91663  -0.0883606227106
 C3 0.27109 0.742749 0.87957  0.667983782051
 C3 0.017133 0.206123 0.87995  0.667983782051
 C1 0.341635 0.432285 0.88666  -0.0205493846154
 C2 0.283127 0.372613 0.88935  -0.0883606227106
 C1 0.097408 0.187773 0.88169  -0.0205493846154
 C2 0.157686 0.2475 0.88819  -0.0883606227106
 C1 0.881229 0.288629 0.66258  -0.0205493846154
 C2 0.848382 0.252269 0.52550  -0.0883606227106
 C2 0.846977 0.234935 0.59988  -0.0883606227106
 C1 0.885036 0.323055 0.51138  -0.0205493846154
 C2 0.919297 0.37638 0.57481  -0.0883606227106
 C2 0.917083 0.359764 0.64934  -0.0883606227106
 C3 0.880051 0.270202 0.74234  0.667983782051
 C3 0.881928 0.016553 0.20540  0.667983782051
 C1 0.887617 0.340888 0.43211  -0.0205493846154
 C2 0.890855 0.282458 0.37236  -0.0883606227106
 C1 0.883951 0.096881 0.18712  -0.0205493846154
 C2 0.89029 0.157172 0.24699  -0.0883606227106
 C1 0.663414 0.883155 0.28659  -0.0205493846154
 C2 0.526585 0.850888 0.24954  -0.0883606227106
 C2 0.600909 0.849728 0.23230  -0.0883606227106
 C1 0.512283 0.886396 0.32087  -0.0205493846154
 C2 0.575503 0.920434 0.3745  -0.0883606227106
 C2 0.649973 0.918439 0.3579  -0.0883606227106
 C3 0.74317 0.881204 0.26873  0.667983782051
 C3 0.20524 0.879946 0.01521  0.667983782051
 C1 0.433088 0.887699 0.33904  -0.0205493846154
 C2 0.372916 0.890384 0.28087  -0.0883606227106
 C1 0.187037 0.881283 0.09558  -0.0205493846154
 C2 0.246947 0.887374 0.155  -0.0883606227106
 C1 0.663888 0.287538 0.88228  -0.0205493846154
 C2 0.527068 0.250572 0.8501  -0.0883606227106
 C2 0.601421 0.233357 0.84876  -0.0883606227106
 C1 0.512718 0.321768 0.8858  -0.0205493846154
 C2 0.575919 0.375349 0.91990  -0.0883606227106
 C2 0.65041 0.358853 0.9177  -0.0883606227106
 C3 0.743664 0.269633 0.88042  0.667983782051
 C3 0.206037 0.016151 0.87987  0.667983782051
 C1 0.4335 0.339852 0.88760  -0.0205493846154
 C2 0.373557 0.281671 0.89037  -0.0883606227106
 C1 0.187921 0.096593 0.88152  -0.0205493846154
 C2 0.247813 0.156701 0.88797  -0.0883606227106
 C1 0.289993 0.880575 0.6624  -0.0205493846154
 C2 0.253538 0.846692 0.52546  -0.0883606227106
 C2 0.236408 0.845689 0.59993  -0.0883606227106
 C1 0.324035 0.883533 0.5109  -0.0205493846154
 C2 0.377283 0.918377 0.57424  -0.0883606227106
 C2 0.360884 0.916546 0.64889  -0.0883606227106
 C3 0.2716 0.879826 0.74231  0.667983782051
 C3 0.016453 0.880099 0.20510  0.667983782051
 C1 0.341446 0.885981 0.4315  -0.0205493846154
 C2 0.282671 0.888415 0.37180  -0.0883606227106
 C1 0.096646 0.881654 0.18670  -0.0205493846154
 C2 0.156977 0.887972 0.24653  -0.0883606227106
 C1 0.882028 0.663408 0.28785  -0.0205493846154
 C2 0.849995 0.526451 0.25095  -0.0883606227106
 C2 0.848359 0.600827 0.23376  -0.0883606227106
 C1 0.886196 0.51224 0.3220  -0.0205493846154
 C2 0.920138 0.575544 0.37565  -0.0883606227106
 C2 0.917728 0.650068 0.35915  -0.0883606227106
 C3 0.88024 0.743146 0.26969  0.667983782051
 C3 0.882183 0.205705 0.01584  0.667983782051
 C1 0.888379 0.432983 0.33997  -0.0205493846154
 C2 0.891721 0.373143 0.28167  -0.0883606227106
 C1 0.884005 0.187586 0.09623  -0.0205493846154
 C2 0.890314 0.247514 0.1564  -0.0883606227106
 C2 0.416693 0.415042 0.88531  -0.0883606227106
 C1 0.297503 0.296458 0.89039  -0.0205493846154
 C1 0.234096 0.233334 0.88956  -0.0205493846154
 C2 0.111992 0.111613 0.87673  -0.0883606227106
 C2 0.885976 0.416039 0.41508  -0.0883606227106
 C1 0.892092 0.297017 0.29628  -0.0205493846154
 C1 0.891696 0.233684 0.23303  -0.0205493846154
 C2 0.879257 0.111547 0.11101  -0.0883606227106
 C2 0.416517 0.88514 0.41425  -0.0883606227106
 C1 0.296857 0.889847 0.29564  -0.0205493846154
 C1 0.23334 0.889089 0.23245  -0.0205493846154
 C2 0.111121 0.876689 0.11050  -0.0883606227106
 O1 0.325973 0.797157 0.90270  -0.567677467949
 O1 0.963328 0.150955 0.85668  -0.567677467949
 O1 0.00893 0.275702 0.90222  -0.567677467949
 O1 0.201849 0.750868 0.85570  -0.567677467949
 O1 0.903226 0.325142 0.79683  -0.567677467949
 O1 0.859465 0.962663 0.15003  -0.567677467949
 O1 0.903062 0.008431 0.27528  -0.567677467949
 O1 0.856365 0.2009 0.75036  -0.567677467949
 O1 0.797365 0.903375 0.32416  -0.567677467949
 O1 0.150159 0.857342 0.96106  -0.567677467949
 O1 0.274885 0.90174 0.00730  -0.567677467949
 O1 0.751446 0.857622 0.19941  -0.567677467949
 O1 0.797758 0.32494 0.90300  -0.567677467949
 O1 0.150968 0.962292 0.85654  -0.567677467949
 O1 0.275578 0.007936 0.90215  -0.567677467949
 O1 0.752096 0.200434 0.85652  -0.567677467949
 O1 0.326365 0.903206 0.79690  -0.567677467949
 O1 0.962519 0.856649 0.15000  -0.567677467949
 O1 0.008467 0.902681 0.27469  -0.567677467949
 O1 0.20237 0.856071 0.75027  -0.567677467949
 O1 0.903419 0.797518 0.32475  -0.567677467949
 O1 0.859623 0.150361 0.96193  -0.567677467949
 O1 0.903424 0.275464 0.00767  -0.567677467949
 O1 0.856 0.751242 0.20046  -0.567677467949
