#======================================================================

# CRYSTAL DATA

#----------------------------------------------------------------------

data_VESTA_phase_1


_pd_phase_name                         MOF
_cell_length_a                         12.77200
_cell_length_b                         15.10000
_cell_length_c                         19.44500
_cell_angle_alpha                      90.08000
_cell_angle_beta                       90.02800
_cell_angle_gamma                      89.99300
_symmetry_space_group_name_H-M         "P 1"
_symmetry_Int_Tables_number            1

loop_
_symmetry_equiv_pos_as_xyz
   "x, y, z"

loop_
   _atom_site_label
   _atom_site_fract_x
   _atom_site_fract_y
   _atom_site_fract_z
 _atom_site_charge
 Cd1 0.679586 0.767981 0.32955  0.930733518519
 Cd1 0.320501 0.267756 0.17048  0.930733518519
 Cd1 0.820108 0.232266 0.82897  0.930733518519
 Cd1 0.17999 0.732002 0.67104  0.930733518519
 Cd1 0.320374 0.23206 0.67044  0.930733518519
 Cd1 0.679465 0.732287 0.82951  0.930733518519
 Cd1 0.179861 0.767773 0.1710  0.930733518519
 Cd1 0.819972 0.268038 0.32894  0.930733518519
 H1 0.31413 0.051855 0.1549  0.105335393519
 H1 0.422556 0.91906 0.18543  0.105335393519
 H1 0.619623 0.091691 0.30592  0.105335393519
 H1 0.505674 0.219135 0.26894  0.105335393519
 H1 0.376874 0.152751 0.03591  0.105335393519
 H1 0.503375 0.15068 0.93602  0.105335393519
 H1 0.593248 0.415792 0.99142  0.105335393519
 H1 0.459603 0.409335 0.087  0.105335393519
 H1 0.686012 0.552103 0.34500  0.105335393519
 H1 0.57739 0.419262 0.31456  0.105335393519
 H1 0.380398 0.591614 0.19411  0.105335393519
 H1 0.494495 0.719103 0.23102  0.105335393519
 H1 0.62325 0.65289 0.46374  0.105335393519
 H1 0.496748 0.65067 0.56365  0.105335393519
 H1 0.406526 0.915745 0.50892  0.105335393519
 H1 0.540162 0.909428 0.41287  0.105335393519
 H1 0.123613 0.846703 0.53678  0.105335393519
 H1 0.996392 0.849209 0.43719  0.105335393519
 H1 0.906726 0.583955 0.4916  0.105335393519
 H1 0.0 0.590116 0.58755  0.105335393519
 H1 0.186514 0.947751 0.65523  0.105335393519
 H1 0.07797 0.080769 0.6852  0.105335393519
 H1 0.880138 0.908955 0.80540  0.105335393519
 H1 0.994377 0.781272 0.76904  0.105335393519
 H1 0.876585 0.347005 0.96355  0.105335393519
 H1 0.0 0.349305 0.06322  0.105335393519
 H1 0.093055 0.08398 0.00817  0.105335393519
 H1 0.959215 0.090327 0.91223  0.105335393519
 H1 0.813577 0.448071 0.84484  0.105335393519
 H1 0.921962 0.581034 0.81474  0.105335393519
 H1 0.119766 0.408806 0.69448  0.105335393519
 H1 0.0 0.281216 0.7309  0.105335393519
 H1 0.685843 0.948188 0.84508  0.105335393519
 H1 0.577418 0.080984 0.81456  0.105335393519
 H1 0.380351 0.908358 0.69407  0.105335393519
 H1 0.494301 0.780912 0.73104  0.105335393519
 H1 0.623058 0.847311 0.96406  0.105335393519
 H1 0.496564 0.849379 0.06395  0.105335393519
 H1 0.406757 0.584239 0.00859  0.105335393519
 H1 0.540395 0.590701 0.91261  0.105335393519
 H1 0.313962 0.447945 0.65499  0.105335393519
 H1 0.422589 0.58078 0.68543  0.105335393519
 H1 0.619571 0.408416 0.80587  0.105335393519
 H1 0.50547 0.280932 0.76896  0.105335393519
 H1 0.376701 0.347147 0.53623  0.105335393519
 H1 0.503205 0.349362 0.43632  0.105335393519
 H1 0.59347 0.08431 0.49109  0.105335393519
 H1 0.45983 0.090628 0.58713  0.105335393519
 H1 0.87637 0.153335 0.46318  0.105335393519
 H1 0.0 0.150821 0.56276  0.105335393519
 H1 0.093216 0.416101 0.50836  0.105335393519
 H1 0.959232 0.409944 0.41244  0.105335393519
 H1 0.813455 0.052293 0.34476  0.105335393519
 H1 0.922 0.919272 0.31477  0.105335393519
 H1 0.119833 0.091078 0.19459  0.105335393519
 H1 0.0 0.218763 0.23094  0.105335393519
 H1 0.123426 0.653063 0.03641  0.105335393519
 H1 0.996386 0.650762 0.93674  0.105335393519
 H1 0.906865 0.916047 0.9918  0.105335393519
 H1 0.0 0.909705 0.08778  0.105335393519
 H1 0.186394 0.551969 0.15514  0.105335393519
 H1 0.078012 0.419005 0.18524  0.105335393519
 H1 0.880186 0.591234 0.30549  0.105335393519
 H1 0.994253 0.718823 0.26903  0.105335393519
 C1 0.383513 0.058135 0.18717  0.162308518519
 C2 0.443896 0.984569 0.20444  -0.155101481481
 C3 0.530821 0.99611 0.24741  -0.000351481481481
 C2 0.553754 0.081363 0.27128  -0.155101481481
 C1 0.49069 0.151774 0.25136  0.162308518519
 C4 0.595445 0.91853 0.27146  0.610698518519
 C1 0.426603 0.209388 0.0241  0.162308518519
 C2 0.496091 0.208593 0.96908  -0.155101481481
 C3 0.559046 0.28286 0.95757  -0.000351481481481
 C2 0.545502 0.357047 0.99978  -0.155101481481
 C1 0.473285 0.353338 0.05311  0.162308518519
 C4 0.645408 0.281778 0.90480  0.610698518519
 C1 0.6166 0.558314 0.31276  0.162308518519
 C2 0.556116 0.484738 0.29555  -0.155101481481
 C3 0.469175 0.496186 0.25260  -0.000351481481481
 C2 0.446284 0.581364 0.22873  -0.155101481481
 C1 0.509437 0.651796 0.24860  0.162308518519
 C4 0.404478 0.418548 0.22857  0.610698518519
 C1 0.573452 0.709484 0.47566  0.162308518519
 C2 0.503959 0.708606 0.53074  -0.155101481481
 C3 0.440922 0.782826 0.54243  -0.000351481481481
 C2 0.454365 0.857045 0.50038  -0.155101481481
 C1 0.526579 0.853418 0.44704  0.162308518519
 C4 0.354575 0.781701 0.5952  0.610698518519
 C1 0.073731 0.790154 0.52489  0.162308518519
 C2 0.003873 0.791175 0.46997  -0.155101481481
 C3 0.940847 0.716956 0.45825  -0.000351481481481
 C2 0.954555 0.64265 0.50019  -0.155101481481
 C1 0.027038 0.646184 0.55344  0.162308518519
 C4 0.854268 0.71819 0.40557  0.610698518519
 C1 0.117007 0.941706 0.68735  0.162308518519
 C2 0.056571 0.0 0.70432  -0.155101481481
 C3 0.96937 0.0 0.74701  -0.000351481481481
 C2 0.946252 0.919055 0.77098  -0.155101481481
 C1 0.009461 0.848519 0.75141  0.162308518519
 C4 0.904651 0.081865 0.77072  0.610698518519
 C1 0.926371 0.290388 0.97533  0.162308518519
 C2 0.996136 0.291291 0.03029  -0.155101481481
 C3 0.05907 0.217005 0.04187  -0.000351481481481
 C2 0.045301 0.142736 0.9997  -0.155101481481
 C1 0.972915 0.14638 0.94646  0.162308518519
 C4 0.145619 0.218117 0.09459  0.610698518519
 C1 0.883053 0.44192 0.81268  0.162308518519
 C2 0.943384 0.515567 0.79565  -0.155101481481
 C3 0.0 0.504166 0.7529  -0.000351481481481
 C2 0.053688 0.419016 0.72893  -0.155101481481
 C1 0.990589 0.348526 0.74857  0.162308518519
 C4 0.095185 0.581871 0.72918  0.610698518519
 C1 0.61646 0.941909 0.81282  0.162308518519
 C2 0.556089 0.0 0.79554  -0.155101481481
 C3 0.46914 0.0 0.75259  -0.000351481481481
 C2 0.446233 0.918687 0.72869  -0.155101481481
 C1 0.509284 0.848272 0.74862  0.162308518519
 C4 0.404531 0.081516 0.7285  0.610698518519
 C1 0.573346 0.790666 0.97584  0.162308518519
 C2 0.503851 0.791463 0.03090  -0.155101481481
 C3 0.440935 0.717179 0.0424  -0.000351481481481
 C2 0.454478 0.642994 0.  -0.155101481481
 C1 0.526701 0.646702 0.9468  0.162308518519
 C4 0.354564 0.71826 0.09519  0.610698518519
 C1 0.383373 0.44173 0.68722  0.162308518519
 C2 0.443859 0.515302 0.70444  -0.155101481481
 C3 0.530797 0.503851 0.74739  -0.000351481481481
 C2 0.553686 0.41867 0.77125  -0.155101481481
 C1 0.490531 0.34824 0.75138  0.162308518519
 C4 0.595495 0.581483 0.77143  0.610698518519
 C1 0.426508 0.290556 0.5243  0.162308518519
 C2 0.496007 0.291433 0.46924  -0.155101481481
 C3 0.55905 0.217215 0.45756  -0.000351481481481
 C2 0.545624 0.143006 0.49962  -0.155101481481
 C1 0.473404 0.146634 0.55296  0.162308518519
 C4 0.645401 0.218337 0.40479  0.610698518519
 C1 0.926244 0.209887 0.47507  0.162308518519
 C2 0.996112 0.208861 0.5299  -0.155101481481
 C3 0.05912 0.283088 0.54172  -0.000351481481481
 C2 0.0454 0.3574 0.4997  -0.155101481481
 C1 0.97291 0.353871 0.44654  0.162308518519
 C4 0.1457 0.281844 0.59440  0.610698518519
 C1 0.882964 0.058335 0.31264  0.162308518519
 C2 0.943398 0.984648 0.29567  -0.155101481481
 C3 0.0 0.995912 0.25298  -0.000351481481481
 C2 0.053718 0.080979 0.22901  -0.155101481481
 C1 0.990512 0.151518 0.24857  0.162308518519
 C4 0.095317 0.918168 0.22927  0.610698518519
 C1 0.073622 0.709672 0.02464  0.162308518519
 C2 0.003848 0.708765 0.96968  -0.155101481481
 C3 0.940904 0.783046 0.9581  -0.000351481481481
 C2 0.954632 0.857297 0.00025  -0.155101481481
 C1 0.027029 0.853659 0.05353  0.162308518519
 C4 0.85434 0.781924 0.90539  0.610698518519
 C1 0.116915 0.558119 0.18730  0.162308518519
 C2 0.056589 0.48447 0.20434  -0.155101481481
 C3 0.969403 0.495873 0.24705  -0.000351481481481
 C2 0.946274 0.581023 0.27104  -0.155101481481
 C1 0.009369 0.651514 0.25140  0.162308518519
 C4 0.904776 0.418165 0.27079  0.610698518519
 N1 0.406537 0.140603 0.20986  -0.357046481481
 N1 0.41617 0.279989 0.06629  -0.357046481481
 N1 0.593628 0.64071 0.29006  -0.357046481481
 N1 0.583784 0.780113 0.43369  -0.357046481481
 N1 0.084308 0.719447 0.56678  -0.357046481481
 N1 0.093871 0.85941 0.71017  -0.357046481481
 N1 0.915758 0.219712 0.93326  -0.357046481481
 N1 0.906224 0.359542 0.78986  -0.357046481481
 N1 0.593441 0.859443 0.79012  -0.357046481481
 N1 0.583793 0.720061 0.93370  -0.357046481481
 N1 0.40634 0.359331 0.70992  -0.357046481481
 N1 0.416189 0.219935 0.56630  -0.357046481481
 N1 0.915653 0.280603 0.43319  -0.357046481481
 N1 0.906097 0.140629 0.28981  -0.357046481481
 N1 0.084208 0.780335 0.06673  -0.357046481481
 N1 0.09374 0.640498 0.21012  -0.357046481481
 O1 0.582038 0.843795 0.24207  -0.599626481481
 O2 0.657082 0.93011 0.32199  -0.569739814815
 O1 0.650116 0.214848 0.86405  -0.599626481481
 O2 0.711094 0.344167 0.90538  -0.569739814815
 O1 0.417953 0.343873 0.25789  -0.599626481481
 O2 0.342776 0.430028 0.17809  -0.569739814815
 O1 0.349969 0.71481 0.63586  -0.599626481481
 O2 0.288826 0.844049 0.5947  -0.569739814815
 O1 0.848686 0.785796 0.36568  -0.599626481481
 O2 0.789386 0.655246 0.40534  -0.569739814815
 O1 0.919942 0.15681 0.74226  -0.599626481481
 O2 0.841051 0.070196 0.82011  -0.569739814815
 O1 0.151212 0.285629 0.13472  -0.599626481481
 O2 0.210535 0.155179 0.0945  -0.569739814815
 O1 0.080121 0.656839 0.7578  -0.599626481481
 O2 0.158563 0.570111 0.6796  -0.569739814815
 O1 0.417932 0.156249 0.75792  -0.599626481481
 O2 0.342878 0.069932 0.67801  -0.569739814815
 O1 0.349861 0.785184 0.13595  -0.599626481481
 O2 0.288885 0.655865 0.09462  -0.569739814815
 O1 0.582019 0.656163 0.74211  -0.599626481481
 O2 0.657194 0.569997 0.82191  -0.569739814815
 O1 0.650001 0.285221 0.36412  -0.599626481481
 O2 0.711146 0.155987 0.40527  -0.569739814815
 O1 0.151294 0.214218 0.63426  -0.599626481481
 O2 0.210562 0.344801 0.5946  -0.569739814815
 O1 0.080033 0.843229 0.25774  -0.599626481481
 O2 0.15891 0.92983 0.17987  -0.569739814815
 O1 0.848771 0.714433 0.86524  -0.599626481481
 O2 0.789405 0.844849 0.90541  -0.569739814815
 O1 0.919861 0.343196 0.24216  -0.599626481481
 O2 0.841366 0.429925 0.32031  -0.569739814815
