#======================================================================

# CRYSTAL DATA

#----------------------------------------------------------------------

data_VESTA_phase_1


_pd_phase_name                         MOF
_cell_length_a                         18.60400
_cell_length_b                         19.05200
_cell_length_c                         19.05900
_cell_angle_alpha                      70.33100
_cell_angle_beta                       70.88500
_cell_angle_gamma                      108.96700
_symmetry_space_group_name_H-M         "P 1"
_symmetry_Int_Tables_number            1

loop_
_symmetry_equiv_pos_as_xyz
   "x, y, z"

loop_
   _atom_site_label
   _atom_site_fract_x
   _atom_site_fract_y
   _atom_site_fract_z
 _atom_site_charge
 Zn1 0.444497 0.509108 0.06955  0.930927794118
 Zn1 0.513924 0.069244 0.42196  0.930927794118
 Zn1 0.935937 0.422071 0.50805  0.930927794118
 Zn1 0.986051 0.421923 0.06920  0.930927794118
 Zn1 0.564142 0.507912 0.42211  0.930927794118
 Zn1 0.055303 0.069475 0.50919  0.930927794118
 Zn1 0.555484 0.490889 0.93045  0.930927794118
 Zn1 0.486053 0.930755 0.57805  0.930927794118
 Zn1 0.064043 0.577929 0.49195  0.930927794118
 Zn1 0.01393 0.578077 0.93081  0.930927794118
 Zn1 0.435833 0.492083 0.57790  0.930927794118
 Zn1 0.944676 0.930521 0.49081  0.930927794118
 H1 0.502953 0.378025 0.27152  0.101946127451
 H1 0.36414 0.234647 0.00852  0.101946127451
 H1 0.420355 0.700902 0.30830  0.101946127451
 H1 0.18666 0.593542 0.25268  0.101946127451
 H1 0.159563 0.51326 0.17481  0.101946127451
 H1 0.274362 0.480545 0.10463  0.101946127451
 H1 0.523541 0.656272 0.24377  0.101946127451
 H1 0.282013 0.661481 0.30171  0.101946127451
 H1 0.493022 0.575693 0.16823  0.101946127451
 H1 0.775338 0.271462 0.35025  0.101946127451
 H1 0.371742 0.009384 0.7575  0.101946127451
 H1 0.724175 0.303033 0.99350  0.101946127451
 H1 0.4364 0.250751 0.15823  0.101946127451
 H1 0.333156 0.175022 0.31601  0.101946127451
 H1 0.378969 0.105732 0.41743  0.101946127451
 H1 0.76397 0.239255 0.10125  0.101946127451
 H1 0.579788 0.297908 0.04064  0.101946127451
 H1 0.659584 0.166078 0.25704  0.101946127451
 H1 0.126079 0.350022 0.37686  0.101946127451
 H1 0.131486 0.756606 0.23529  0.101946127451
 H1 0.717094 0.9935 0.70317  0.101946127451
 H1 0.593286 0.157418 0.59255  0.101946127451
 H1 0.64804 0.315005 0.51025  0.101946127451
 H1 0.795937 0.416811 0.47708  0.101946127451
 H1 0.865424 0.101454 0.65777  0.101946127451
 H1 0.619223 0.040201 0.66243  0.101946127451
 H1 0.917 0.257074 0.57504  0.101946127451
 H1 0.724296 0.350361 0.27167  0.101946127451
 H1 0.12803 0.757144 0.00936  0.101946127451
 H1 0.775683 0.993648 0.303  0.101946127451
 H1 0.06322 0.157912 0.25108  0.101946127451
 H1 0.166509 0.315567 0.17515  0.101946127451
 H1 0.120881 0.417113 0.10563  0.101946127451
 H1 0.736082 0.101512 0.23921  0.101946127451
 H1 0.919923 0.040551 0.29827  0.101946127451
 H1 0.840488 0.257178 0.16584  0.101946127451
 H1 0.374641 0.376868 0.3501  0.101946127451
 H1 0.368529 0.235536 0.75690  0.101946127451
 H1 0.783481 0.703526 0.99332  0.101946127451
 H1 0.907204 0.592632 0.15703  0.101946127451
 H1 0.852186 0.509893 0.31467  0.101946127451
 H1 0.704097 0.4766 0.41667  0.101946127451
 H1 0.634824 0.657654 0.10145  0.101946127451
 H1 0.881464 0.662862 0.03988  0.101946127451
 H1 0.583085 0.574724 0.25709  0.101946127451
 H1 0.996487 0.271479 0.37830  0.101946127451
 H1 0.13626 0.009085 0.2339  0.101946127451
 H1 0.079316 0.308301 0.70091  0.101946127451
 H1 0.312964 0.252023 0.59350  0.101946127451
 H1 0.340006 0.173933 0.51339  0.101946127451
 H1 0.225304 0.104028 0.4807  0.101946127451
 H1 0.976143 0.243843 0.65651  0.101946127451
 H1 0.21766 0.301467 0.66133  0.101946127451
 H1 0.006751 0.168236 0.57590  0.101946127451
 H1 0.497027 0.621974 0.72848  0.101946127451
 H1 0.63584 0.76535 0.99148  0.101946127451
 H1 0.579622 0.299094 0.69170  0.101946127451
 H1 0.813318 0.406453 0.74732  0.101946127451
 H1 0.840417 0.486735 0.82519  0.101946127451
 H1 0.725618 0.519451 0.89537  0.101946127451
 H1 0.476439 0.343728 0.75623  0.101946127451
 H1 0.717964 0.338514 0.69829  0.101946127451
 H1 0.506959 0.424307 0.83177  0.101946127451
 H1 0.224642 0.728536 0.64976  0.101946127451
 H1 0.628234 0.990612 0.24244  0.101946127451
 H1 0.2758 0.696961 0.00650  0.101946127451
 H1 0.563576 0.749244 0.84178  0.101946127451
 H1 0.666821 0.824975 0.68400  0.101946127451
 H1 0.621009 0.894267 0.58258  0.101946127451
 H1 0.236006 0.760739 0.89875  0.101946127451
 H1 0.420187 0.702086 0.95937  0.101946127451
 H1 0.340393 0.833918 0.74297  0.101946127451
 H1 0.8739 0.649976 0.62314  0.101946127451
 H1 0.868493 0.243397 0.76471  0.101946127451
 H1 0.282883 0.006501 0.29684  0.101946127451
 H1 0.406692 0.842583 0.40746  0.101946127451
 H1 0.35194 0.684996 0.48975  0.101946127451
 H1 0.204045 0.58319 0.52292  0.101946127451
 H1 0.134555 0.898545 0.34223  0.101946127451
 H1 0.380755 0.9598 0.33757  0.101946127451
 H1 0.082981 0.742925 0.42496  0.101946127451
 H1 0.275682 0.649636 0.7283  0.101946127451
 H1 0.871948 0.242859 0.99064  0.101946127451
 H1 0.224294 0.006352 0.69671  0.101946127451
 H1 0.936758 0.842084 0.74893  0.101946127451
 H1 0.83347 0.684429 0.82485  0.101946127451
 H1 0.879101 0.582885 0.89438  0.101946127451
 H1 0.263897 0.898489 0.76079  0.101946127451
 H1 0.080054 0.959447 0.70173  0.101946127451
 H1 0.159493 0.742823 0.83416  0.101946127451
 H1 0.625337 0.623128 0.64982  0.101946127451
 H1 0.631444 0.764459 0.24311  0.101946127451
 H1 0.216496 0.296471 0.00668  0.101946127451
 H1 0.092772 0.407363 0.84298  0.101946127451
 H1 0.14779 0.490102 0.68534  0.101946127451
 H1 0.295878 0.523395 0.58334  0.101946127451
 H1 0.365154 0.342345 0.89856  0.101946127451
 H1 0.118512 0.337134 0.96013  0.101946127451
 H1 0.416892 0.425274 0.74291  0.101946127451
 H1 0.003493 0.728516 0.62170  0.101946127451
 H1 0.863719 0.990913 0.76606  0.101946127451
 H1 0.920659 0.691694 0.299  0.101946127451
 H1 0.687012 0.747972 0.40650  0.101946127451
 H1 0.659971 0.826063 0.48662  0.101946127451
 H1 0.774674 0.895968 0.51928  0.101946127451
 H1 0.023834 0.756154 0.34349  0.101946127451
 H1 0.782315 0.698528 0.3386  0.101946127451
 H1 0.993227 0.831761 0.42410  0.101946127451
 H1 0.733131 0.483251 0.03429  0.101946127451
 H1 0.573301 0.324084 0.3516  0.101946127451
 H1 0.766847 0.034286 0.48336  0.101946127451
 H1 0.92608 0.351498 0.32414  0.101946127451
 H1 0.249919 0.482545 0.4826  0.101946127451
 H1 0.250534 0.3233 0.32330  0.101946127451
 H1 0.266852 0.516748 0.96571  0.101946127451
 H1 0.426677 0.675913 0.64833  0.101946127451
 H1 0.233129 0.965711 0.51665  0.101946127451
 H1 0.073901 0.648499 0.67586  0.101946127451
 H1 0.75006 0.517452 0.51734  0.101946127451
 H1 0.749444 0.676696 0.67670  0.101946127451
 H1 0.249965 0.240654 0.24068  0.101946127451
 H1 0.250246 0.081688 0.08080  0.101946127451
 H1 0.490422 0.240095 0.51994  0.101946127451
 H1 0.329389 0.08266 0.8375  0.101946127451
 H1 0.009467 0.519709 0.24023  0.101946127451
 H1 0.170548 0.837118 0.08242  0.101946127451
 H1 0.750012 0.759345 0.75932  0.101946127451
 H1 0.749734 0.918308 0.91921  0.101946127451
 H1 0.509551 0.7599 0.48007  0.101946127451
 H1 0.670587 0.917336 0.162  0.101946127451
 H1 0.990516 0.480294 0.75977  0.101946127451
 H1 0.829428 0.162885 0.91758  0.101946127451
 C1 0.567243 0.456487 0.09925  0.669516127451
 C2 0.61229 0.431216 0.14782  -0.117787205882
 C3 0.568509 0.38848 0.23750  -0.074372872549
 C1 0.378571 0.340829 0.07574  0.669516127451
 C2 0.31242 0.247883 0.11929  -0.117787205882
 C3 0.313464 0.202192 0.07496  -0.074372872549
 C3 0.406048 0.666472 0.27482  -0.074372872549
 C3 0.233736 0.576511 0.22242  -0.074372872549
 C3 0.218783 0.532352 0.17983  -0.074372872549
 C4 0.282411 0.512975 0.14114  0.184061127451
 C3 0.465235 0.641625 0.23724  -0.074372872549
 C2 0.311415 0.600377 0.2273  -0.117787205882
 C3 0.329961 0.645567 0.27067  -0.074372872549
 C5 0.372529 0.576855 0.18785  0.229066127451
 C3 0.449152 0.597449 0.1947  -0.074372872549
 C1 0.666575 0.099416 0.44445  0.669516127451
 C2 0.760288 0.147831 0.42128  -0.117787205882
 C3 0.806641 0.237419 0.37398  -0.074372872549
 C1 0.453936 0.075363 0.58458  0.669516127451
 C2 0.43109 0.119313 0.63386  -0.117787205882
 C3 0.387488 0.07571 0.72354  -0.074372872549
 C3 0.677099 0.270559 0.06131  -0.074372872549
 C3 0.453797 0.220884 0.20483  -0.074372872549
 C3 0.397186 0.1795 0.29141  -0.074372872549
 C4 0.422774 0.141244 0.34862  0.184061127451
 C3 0.69936 0.233443 0.12292  -0.074372872549
 C2 0.536167 0.225148 0.17535  -0.117787205882
 C3 0.597132 0.267192 0.08700  -0.074372872549
 C5 0.55844 0.186093 0.23751  0.229066127451
 C3 0.641752 0.192285 0.20936  -0.074372872549
 C1 0.111125 0.444152 0.45572  0.669516127451
 C2 0.181612 0.42073 0.43042  -0.117787205882
 C3 0.180913 0.373523 0.38761  -0.074372872549
 C1 0.038351 0.583853 0.34094  0.669516127451
 C2 0.065401 0.633278 0.24803  -0.117787205882
 C3 0.112836 0.722866 0.20264  -0.074372872549
 C3 0.737912 0.061247 0.66780  -0.074372872549
 C3 0.657628 0.204155 0.57520  -0.074372872549
 C3 0.687689 0.290634 0.5299  -0.074372872549
 C4 0.770885 0.348039 0.51033  0.184061127451
 C3 0.82222 0.122983 0.64255  -0.074372872549
 C2 0.710794 0.174943 0.59984  -0.117787205882
 C3 0.683293 0.08669 0.64619  -0.074372872549
 C5 0.795676 0.237271 0.57597  0.229066127451
 C3 0.851158 0.209332 0.59719  -0.074372872549
 C1 0.833314 0.444482 0.09954  0.669516127451
 C2 0.739516 0.421284 0.14794  -0.117787205882
 C3 0.693001 0.373977 0.23757  -0.074372872549
 C1 0.045926 0.584285 0.07547  0.669516127451
 C2 0.068753 0.633535 0.11937  -0.117787205882
 C3 0.112361 0.723162 0.07567  -0.074372872549
 C3 0.822792 0.061408 0.27072  -0.074372872549
 C3 0.045909 0.204572 0.221  -0.074372872549
 C3 0.102556 0.291076 0.17958  -0.074372872549
 C4 0.077059 0.348357 0.14121  0.184061127451
 C3 0.800623 0.123084 0.23345  -0.074372872549
 C2 0.963654 0.175229 0.22524  -0.117787205882
 C3 0.902652 0.086957 0.26744  -0.074372872549
 C5 0.941451 0.237464 0.18610  0.229066127451
 C3 0.858263 0.209454 0.19215  -0.074372872549
 C1 0.388958 0.4557 0.44433  0.669516127451
 C2 0.318632 0.430363 0.42088  -0.117787205882
 C3 0.319674 0.387576 0.37365  -0.074372872549
 C1 0.46163 0.340969 0.58402  0.669516127451
 C2 0.434517 0.248059 0.6335  -0.117787205882
 C3 0.387122 0.202798 0.7231  -0.074372872549
 C3 0.762568 0.667995 0.06108  -0.074372872549
 C3 0.842757 0.575162 0.20385  -0.074372872549
 C3 0.812565 0.529697 0.29035  -0.074372872549
 C4 0.729244 0.509975 0.34787  0.184061127451
 C3 0.678079 0.642496 0.12291  -0.074372872549
 C2 0.789601 0.599892 0.17472  -0.117787205882
 C3 0.817238 0.64643 0.0864  -0.074372872549
 C5 0.704553 0.575813 0.23715  0.229066127451
 C3 0.649038 0.597016 0.20928  -0.074372872549
 C1 0.932583 0.09927 0.45670  0.669516127451
 C2 0.887453 0.147793 0.43138  -0.117787205882
 C3 0.931029 0.237422 0.38871  -0.074372872549
 C1 0.121491 0.075809 0.34063  0.669516127451
 C2 0.187744 0.119507 0.2475  -0.117787205882
 C3 0.186844 0.075462 0.20161  -0.074372872549
 C3 0.093642 0.274755 0.66650  -0.074372872549
 C3 0.265901 0.22186 0.57653  -0.074372872549
 C3 0.280839 0.17916 0.53244  -0.074372872549
 C4 0.217259 0.140612 0.51311  0.184061127451
 C3 0.034465 0.237216 0.64178  -0.074372872549
 C2 0.188281 0.227041 0.60037  -0.117787205882
 C3 0.169718 0.270452 0.64552  -0.074372872549
 C5 0.127186 0.18762 0.57695  0.229066127451
 C3 0.050587 0.194726 0.59760  -0.074372872549
 C1 0.432739 0.543512 0.90075  0.669516127451
 C2 0.387691 0.568783 0.85218  -0.117787205882
 C3 0.431471 0.611518 0.76250  -0.074372872549
 C1 0.621406 0.65917 0.92426  0.669516127451
 C2 0.687559 0.752115 0.88071  -0.117787205882
 C3 0.686516 0.797805 0.9250  -0.074372872549
 C3 0.59393 0.333525 0.72518  -0.074372872549
 C3 0.766243 0.423485 0.77758  -0.074372872549
 C3 0.781196 0.467643 0.82017  -0.074372872549
 C4 0.71757 0.487023 0.8588  0.184061127451
 C3 0.534744 0.358374 0.76276  -0.074372872549
 C2 0.688563 0.399617 0.77266  -0.117787205882
 C3 0.670017 0.35443 0.72933  -0.074372872549
 C5 0.627452 0.423144 0.8121  0.229066127451
 C3 0.550827 0.402548 0.80521  -0.074372872549
 C1 0.333402 0.900583 0.5555  0.669516127451
 C2 0.239689 0.852167 0.57873  -0.117787205882
 C3 0.193338 0.762579 0.62602  -0.074372872549
 C1 0.546039 0.924633 0.41543  0.669516127451
 C2 0.568886 0.880683 0.36615  -0.117787205882
 C3 0.612487 0.924286 0.27647  -0.074372872549
 C3 0.322876 0.729436 0.93870  -0.074372872549
 C3 0.546178 0.779111 0.79518  -0.074372872549
 C3 0.602791 0.820497 0.70860  -0.074372872549
 C4 0.577203 0.858753 0.65139  0.184061127451
 C3 0.300615 0.766551 0.87708  -0.074372872549
 C2 0.46381 0.774849 0.82466  -0.117787205882
 C3 0.402843 0.732802 0.91301  -0.074372872549
 C5 0.441536 0.813902 0.76249  0.229066127451
 C3 0.358225 0.807711 0.79064  -0.074372872549
 C1 0.888855 0.555846 0.54428  0.669516127451
 C2 0.818367 0.579268 0.56958  -0.117787205882
 C3 0.819066 0.626474 0.61239  -0.074372872549
 C1 0.961629 0.41615 0.65906  0.669516127451
 C2 0.93458 0.366725 0.7519  -0.117787205882
 C3 0.887143 0.277138 0.79736  -0.074372872549
 C3 0.262067 0.938753 0.33220  -0.074372872549
 C3 0.342351 0.795846 0.42480  -0.074372872549
 C3 0.312292 0.709367 0.47005  -0.074372872549
 C4 0.229096 0.651961 0.48967  0.184061127451
 C3 0.177759 0.877017 0.35745  -0.074372872549
 C2 0.289187 0.825058 0.4001  -0.117787205882
 C3 0.316684 0.91331 0.35381  -0.074372872549
 C5 0.204303 0.762729 0.4240  0.229066127451
 C3 0.148822 0.790667 0.40281  -0.074372872549
 C1 0.166666 0.555517 0.90046  0.669516127451
 C2 0.260464 0.578714 0.85207  -0.117787205882
 C3 0.306978 0.626021 0.76243  -0.074372872549
 C1 0.954055 0.415717 0.92453  0.669516127451
 C2 0.931228 0.366468 0.88063  -0.117787205882
 C3 0.887617 0.276841 0.92433  -0.074372872549
 C3 0.177186 0.938592 0.72928  -0.074372872549
 C3 0.954069 0.795425 0.77891  -0.074372872549
 C3 0.897424 0.708921 0.82042  -0.074372872549
 C4 0.922921 0.651641 0.85880  0.184061127451
 C3 0.199355 0.876917 0.76655  -0.074372872549
 C2 0.036325 0.824769 0.7747  -0.117787205882
 C3 0.097326 0.913041 0.73256  -0.074372872549
 C5 0.058528 0.762536 0.81390  0.229066127451
 C3 0.141717 0.790546 0.80785  -0.074372872549
 C1 0.611019 0.544295 0.55568  0.669516127451
 C2 0.681346 0.569633 0.57913  -0.117787205882
 C3 0.680304 0.61242 0.62635  -0.074372872549
 C1 0.538339 0.659025 0.41598  0.669516127451
 C2 0.565457 0.751936 0.3664  -0.117787205882
 C3 0.612851 0.797197 0.27685  -0.074372872549
 C3 0.23741 0.332003 0.93893  -0.074372872549
 C3 0.157219 0.424833 0.79615  -0.074372872549
 C3 0.187411 0.470299 0.70965  -0.074372872549
 C4 0.270731 0.49002 0.65214  0.184061127451
 C3 0.321899 0.357502 0.877  -0.074372872549
 C2 0.210375 0.400105 0.82528  -0.117787205882
 C3 0.182738 0.353566 0.91356  -0.074372872549
 C5 0.295423 0.424183 0.76285  0.229066127451
 C3 0.350939 0.402982 0.79072  -0.074372872549
 C1 0.067395 0.900725 0.5433  0.669516127451
 C2 0.112525 0.852203 0.56863  -0.117787205882
 C3 0.068951 0.762574 0.611  -0.074372872549
 C1 0.878487 0.92419 0.65937  0.669516127451
 C2 0.812235 0.880491 0.75242  -0.117787205882
 C3 0.813134 0.924535 0.79839  -0.074372872549
 C3 0.906334 0.725241 0.33351  -0.074372872549
 C3 0.734075 0.778136 0.42347  -0.074372872549
 C3 0.719137 0.820835 0.46757  -0.074372872549
 C4 0.782718 0.859384 0.486  0.184061127451
 C3 0.965511 0.76278 0.35822  -0.074372872549
 C2 0.811695 0.772954 0.39963  -0.117787205882
 C3 0.830257 0.729543 0.35448  -0.074372872549
 C5 0.872791 0.812376 0.42305  0.229066127451
 C3 0.949391 0.805271 0.40240  -0.074372872549
 C3 0.698068 0.448301 0.103  -0.074372872549
 C3 0.608409 0.359012 0.28199  -0.074372872549
 C3 0.801769 0.103757 0.44843  -0.074372872549
 C3 0.891116 0.281845 0.35908  -0.074372872549
 C3 0.250041 0.447664 0.44777  -0.074372872549
 C3 0.250383 0.358249 0.35831  -0.074372872549
 C3 0.301914 0.551697 0.89621  -0.074372872549
 C3 0.391569 0.640985 0.71801  -0.074372872549
 C3 0.198209 0.89624 0.55158  -0.074372872549
 C3 0.108864 0.718151 0.64093  -0.074372872549
 C3 0.749937 0.552333 0.55223  -0.074372872549
 C3 0.749596 0.641748 0.64169  -0.074372872549
 C3 0.250024 0.205822 0.20567  -0.074372872549
 C3 0.250204 0.116575 0.11591  -0.074372872549
 C3 0.455162 0.20558 0.58951  -0.074372872549
 C3 0.364789 0.117235 0.76779  -0.074372872549
 C3 0.044736 0.589239 0.20564  -0.074372872549
 C3 0.135125 0.767435 0.11708  -0.074372872549
 C3 0.749954 0.794176 0.79433  -0.074372872549
 C3 0.749776 0.883422 0.88409  -0.074372872549
 C3 0.544811 0.794415 0.41050  -0.074372872549
 C3 0.635188 0.882761 0.23222  -0.074372872549
 C3 0.955245 0.410765 0.79436  -0.074372872549
 C3 0.864854 0.232568 0.88292  -0.074372872549
 N1 0.35677 0.534225 0.14410  -0.352022205882
 N1 0.499866 0.143572 0.32374  -0.352022205882
 N1 0.823374 0.323421 0.53233  -0.352022205882
 N1 7.2e-05 0.32361 0.14345  -0.352022205882
 N1 0.676763 0.532063 0.3233  -0.352022205882
 N1 0.142961 0.143814 0.53432  -0.352022205882
 N1 0.643209 0.465771 0.85590  -0.352022205882
 N1 0.500112 0.856427 0.67627  -0.352022205882
 N1 0.176607 0.67658 0.46767  -0.352022205882
 N1 0.999909 0.676389 0.8565  -0.352022205882
 N1 0.323212 0.467933 0.67668  -0.352022205882
 N1 0.857016 0.856181 0.46568  -0.352022205882
 O1 0.504832 0.468493 0.1355  -0.588845539216
 O1 0.361357 0.381977 0.11323  -0.588845539216
 O1 0.594009 0.462832 0.02559  -0.588845539216
 O1 0.446411 0.369738 0.  -0.588845539216
 O1 0.64041 0.135528 0.39646  -0.588845539216
 O1 0.474215 0.112418 0.50625  -0.588845539216
 O1 0.619605 0.026095 0.51153  -0.588845539216
 O1 0.452011 0.0 0.62525  -0.588845539216
 O1 0.037048 0.39643 0.46696  -0.588845539216
 O1 0.980137 0.505648 0.38142  -0.588845539216
 O1 0.131112 0.511062 0.4628  -0.588845539216
 O1 0.07691 0.624289 0.37052  -0.588845539216
 O1 0.859492 0.396474 0.13565  -0.588845539216
 O1 0.02549 0.505924 0.11262  -0.588845539216
 O1 0.880308 0.511535 0.02619  -0.588845539216
 O1 0.047747 0.624973 0.  -0.588845539216
 O1 0.463127 0.466904 0.39660  -0.588845539216
 O1 0.519952 0.381343 0.50579  -0.588845539216
 O1 0.368805 0.462963 0.51117  -0.588845539216
 O1 0.42292 0.370621 0.62439  -0.588845539216
 O1 0.994852 0.13552 0.46874  -0.588845539216
 O1 0.138499 0.11315 0.38190  -0.588845539216
 O1 0.906089 0.025702 0.46291  -0.588845539216
 O1 0.053814 0.0 0.36952  -0.588845539216
 O1 0.495147 0.531501 0.86445  -0.588845539216
 O1 0.63862 0.618022 0.88677  -0.588845539216
 O1 0.405976 0.537169 0.97441  -0.588845539216
 O1 0.553569 0.630259 0.99417  -0.588845539216
 O1 0.359567 0.864472 0.60355  -0.588845539216
 O1 0.525763 0.88758 0.49376  -0.588845539216
 O1 0.380373 0.973905 0.48848  -0.588845539216
 O1 0.547966 0.994352 0.37476  -0.588845539216
 O1 0.962931 0.603569 0.53304  -0.588845539216
 O1 0.019847 0.494354 0.61858  -0.588845539216
 O1 0.868868 0.488937 0.537  -0.588845539216
 O1 0.923071 0.375714 0.62948  -0.588845539216
 O1 0.140489 0.603526 0.86436  -0.588845539216
 O1 0.974489 0.494077 0.88739  -0.588845539216
 O1 0.119673 0.488466 0.9738  -0.588845539216
 O1 0.952237 0.375029 0.99416  -0.588845539216
 O1 0.536851 0.533093 0.60340  -0.588845539216
 O1 0.480021 0.618652 0.49422  -0.588845539216
 O1 0.631172 0.537032 0.48884  -0.588845539216
 O1 0.577055 0.629375 0.37562  -0.588845539216
 O1 0.0 0.864475 0.53126  -0.588845539216
 O1 0.86148 0.886848 0.61810  -0.588845539216
 O1 0.093891 0.974295 0.53709  -0.588845539216
 O1 0.946168 0.99411 0.63048  -0.588845539216
