#======================================================================

# CRYSTAL DATA

#----------------------------------------------------------------------

data_VESTA_phase_1


_pd_phase_name                         MOF
_cell_length_a                         18.59700
_cell_length_b                         22.63000
_cell_length_c                         16.54500
_cell_angle_alpha                      107.03300
_cell_angle_beta                       90.06300
_cell_angle_gamma                      114.03900
_symmetry_space_group_name_H-M         "P 1"
_symmetry_Int_Tables_number            1

loop_
_symmetry_equiv_pos_as_xyz
   "x, y, z"

loop_
   _atom_site_label
   _atom_site_fract_x
   _atom_site_fract_y
   _atom_site_fract_z
 _atom_site_charge
 Zn1 0.072678 0.335902 0.72932  0.915413207547
 Zn1 0.072675 0.835908 0.72932  0.915413207547
 Zn1 0.572667 0.335907 0.72932  0.915413207547
 Zn1 0.572659 0.83591 0.72932  0.915413207547
 Zn1 0.237406 0.163649 0.77075  0.915413207547
 Zn1 0.237399 0.663652 0.77075  0.915413207547
 Zn1 0.73739 0.163649 0.77075  0.915413207547
 Zn1 0.737387 0.663655 0.77075  0.915413207547
 Zn1 0.427317 0.164128 0.27070  0.915413207547
 Zn1 0.427314 0.664134 0.27070  0.915413207547
 Zn1 0.927307 0.164127 0.27070  0.915413207547
 Zn1 0.9273 0.66413 0.27070  0.915413207547
 Zn1 0.262593 0.336381 0.22927  0.915413207547
 Zn1 0.262587 0.836384 0.22927  0.915413207547
 Zn1 0.76258 0.336378 0.22927  0.915413207547
 Zn1 0.762577 0.836383 0.22927  0.915413207547
 Zn2 0.124665 6.4e-05 0.74999  1.11764320755
 Zn2 0.12466 0.500066 0.74999  1.11764320755
 Zn2 0.624651 6.6e-05 0.74999  1.11764320755
 Zn2 0.624648 0.500072 0.74999  1.11764320755
 Zn2 0.375332 0.999969 0.2500  1.11764320755
 Zn2 0.375328 0.499976 0.2500  1.11764320755
 Zn2 0.87532 0.999968 0.2500  1.11764320755
 Zn2 0.875316 0.49997 0.2500  1.11764320755
 H1 0.467339 0.267447 0.46953  0.114600350404
 H1 0.467334 0.767451 0.46953  0.114600350404
 H1 0.967327 0.267443 0.4695  0.114600350404
 H1 0.967323 0.767449 0.46953  0.114600350404
 H1 0.364422 0.429641 0.41902  0.114600350404
 H1 0.364408 0.929641 0.41903  0.114600350404
 H1 0.864404 0.429635 0.41903  0.114600350404
 H1 0.864404 0.929643 0.4190  0.114600350404
 H1 0.44898 0.459619 0.55530  0.114600350404
 H1 0.448966 0.959619 0.55530  0.114600350404
 H1 0.948962 0.459613 0.55530  0.114600350404
 H1 0.948964 0.959621 0.55530  0.114600350404
 H2 0.385302 0.192898 0.1053  0.429165707547
 H2 0.385298 0.692905 0.10533  0.429165707547
 H2 0.885291 0.192895 0.1053  0.429165707547
 H2 0.885284 0.692898 0.10534  0.429165707547
 H1 0.27925 0.217084 0.12782  0.114600350404
 H1 0.279246 0.717089 0.12782  0.114600350404
 H1 0.77924 0.217082 0.12782  0.114600350404
 H1 0.779234 0.717086 0.12782  0.114600350404
 H1 0.186166 0.09808 0.11148  0.114600350404
 H1 0.186164 0.598084 0.11148  0.114600350404
 H1 0.686156 0.098078 0.11148  0.114600350404
 H1 0.686148 0.598082 0.11148  0.114600350404
 H1 0.231424 0.104129 0.21130  0.114600350404
 H1 0.231421 0.604133 0.21130  0.114600350404
 H1 0.731413 0.104127 0.21130  0.114600350404
 H1 0.731404 0.604131 0.21130  0.114600350404
 H1 0.177267 0.153036 0.20874  0.114600350404
 H1 0.177263 0.653039 0.20874  0.114600350404
 H1 0.677256 0.153033 0.20874  0.114600350404
 H1 0.677249 0.653039 0.20874  0.114600350404
 H2 0.170978 0.441814 0.83808  0.429165707547
 H2 0.170976 0.94182 0.83808  0.429165707547
 H2 0.670968 0.441819 0.83808  0.429165707547
 H2 0.67096 0.941822 0.83808  0.429165707547
 H1 0.199736 0.233249 0.03030  0.114600350404
 H1 0.199729 0.73325 0.03030  0.114600350404
 H1 0.699722 0.233248 0.03030  0.114600350404
 H1 0.699718 0.733254 0.03030  0.114600350404
 H1 0.436124 0.071124 0.08099  0.114600350404
 H1 0.436121 0.571131 0.08099  0.114600350404
 H1 0.936117 0.071123 0.08100  0.114600350404
 H1 0.936109 0.571126 0.08100  0.114600350404
 H1 0.490547 0.041183 0.94462  0.114600350404
 H1 0.490543 0.54119 0.94462  0.114600350404
 H1 0.99054 0.041181 0.94462  0.114600350404
 H1 0.990532 0.541183 0.94462  0.114600350404
 H2 0.193111 0.307912 0.39404  0.429165707547
 H2 0.193103 0.807915 0.39404  0.429165707547
 H2 0.693096 0.307907 0.39404  0.429165707547
 H2 0.693092 0.807914 0.39404  0.429165707547
 H1 0.062909 0.283726 0.37237  0.114600350404
 H1 0.062901 0.783729 0.37237  0.114600350404
 H1 0.562894 0.283724 0.37237  0.114600350404
 H1 0.562891 0.78373 0.37237  0.114600350404
 H1 0.087667 0.402688 0.38873  0.114600350404
 H1 0.087659 0.90269 0.38873  0.114600350404
 H1 0.587655 0.402687 0.38874  0.114600350404
 H1 0.587651 0.902693 0.3887  0.114600350404
 H1 0.126376 0.396601 0.28872  0.114600350404
 H1 0.126369 0.896604 0.28872  0.114600350404
 H1 0.626365 0.396599 0.2887  0.114600350404
 H1 0.626361 0.896606 0.28872  0.114600350404
 H1 0.023826 0.347731 0.29164  0.114600350404
 H1 0.023819 0.847734 0.29164  0.114600350404
 H1 0.523815 0.347731 0.29165  0.114600350404
 H1 0.52381 0.847737 0.29165  0.114600350404
 H2 0.229806 0.057316 0.66236  0.429165707547
 H2 0.229799 0.55732 0.66236  0.429165707547
 H2 0.729788 0.057318 0.66236  0.429165707547
 H2 0.729785 0.557323 0.66236  0.429165707547
 H1 0.032655 0.232582 0.53050  0.114600350404
 H1 0.032652 0.732587 0.530  0.114600350404
 H1 0.532646 0.232587 0.53049  0.114600350404
 H1 0.532636 0.732589 0.53050  0.114600350404
 H1 0.135581 0.070392 0.58099  0.114600350404
 H1 0.135572 0.570394 0.58100  0.114600350404
 H1 0.635563 0.070392 0.58100  0.114600350404
 H1 0.635562 0.570399 0.58  0.114600350404
 H1 0.051022 0.040413 0.44472  0.114600350404
 H1 0.051013 0.540416 0.44472  0.114600350404
 H1 0.551005 0.040414 0.44472  0.114600350404
 H1 0.551002 0.54042 0.44472  0.114600350404
 H2 0.114698 0.307141 0.8946  0.429165707547
 H2 0.114694 0.807149 0.89468  0.429165707547
 H2 0.614687 0.30715 0.89468  0.429165707547
 H2 0.614679 0.807151 0.89468  0.429165707547
 H1 0.220745 0.282951 0.87220  0.114600350404
 H1 0.22074 0.782955 0.87220  0.114600350404
 H1 0.720732 0.282954 0.87220  0.114600350404
 H1 0.720726 0.782958 0.87220  0.114600350404
 H1 0.313834 0.401951 0.88854  0.114600350404
 H1 0.313831 0.901955 0.88853  0.114600350404
 H1 0.813825 0.401953 0.88853  0.114600350404
 H1 0.813816 0.901958 0.88854  0.114600350404
 H1 0.268576 0.3959 0.78871  0.114600350404
 H1 0.268573 0.895903 0.78871  0.114600350404
 H1 0.768566 0.395901 0.78871  0.114600350404
 H1 0.768559 0.895906 0.78871  0.114600350404
 H1 0.32273 0.346991 0.79127  0.114600350404
 H1 0.322725 0.846994 0.79127  0.114600350404
 H1 0.822717 0.34699 0.79127  0.114600350404
 H1 0.822712 0.846997 0.79127  0.114600350404
 H2 0.329021 0.058219 0.16194  0.429165707547
 H2 0.329018 0.558227 0.16194  0.429165707547
 H2 0.829011 0.058219 0.16194  0.429165707547
 H2 0.829003 0.558221 0.16194  0.429165707547
 H1 0.300264 0.266786 0.96972  0.114600350404
 H1 0.300256 0.766788 0.96972  0.114600350404
 H1 0.800248 0.266783 0.96972  0.114600350404
 H1 0.800245 0.766789 0.96972  0.114600350404
 H1 0.063871 0.428902 0.91903  0.114600350404
 H1 0.063868 0.928908 0.9190  0.114600350404
 H1 0.563857 0.428907 0.91902  0.114600350404
 H1 0.56385 0.92891 0.91902  0.114600350404
 H1 0.009448 0.458848 0.05540  0.114600350404
 H1 0.009444 0.958854 0.05540  0.114600350404
 H1 0.509434 0.458854 0.05540  0.114600350404
 H1 0.509426 0.958856 0.05540  0.114600350404
 H2 0.30689 0.192119 0.60598  0.429165707547
 H2 0.306882 0.692123 0.60598  0.429165707547
 H2 0.806875 0.192122 0.60598  0.429165707547
 H2 0.806873 0.692127 0.60598  0.429165707547
 H1 0.437091 0.216303 0.62765  0.114600350404
 H1 0.437083 0.716307 0.62765  0.114600350404
 H1 0.937076 0.216304 0.62765  0.114600350404
 H1 0.937073 0.716309 0.62765  0.114600350404
 H1 0.412331 0.097341 0.61129  0.114600350404
 H1 0.412324 0.597345 0.61129  0.114600350404
 H1 0.912312 0.09734 0.61128  0.114600350404
 H1 0.912309 0.597345 0.61128  0.114600350404
 H1 0.373621 0.103427 0.71130  0.114600350404
 H1 0.373614 0.60343 0.71130  0.114600350404
 H1 0.873603 0.103426 0.71129  0.114600350404
 H1 0.873599 0.603431 0.71129  0.114600350404
 H1 0.476171 0.152296 0.70838  0.114600350404
 H1 0.476164 0.6523 0.70838  0.114600350404
 H1 0.976154 0.152294 0.70837  0.114600350404
 H1 0.97615 0.652299 0.70837  0.114600350404
 H2 0.270189 0.442714 0.33765  0.429165707547
 H2 0.270181 0.942717 0.33765  0.429165707547
 H2 0.770177 0.442711 0.33766  0.429165707547
 H2 0.770174 0.942717 0.33766  0.429165707547
 C1 0.445306 0.302553 0.45858  -0.120846792453
 C1 0.445298 0.802556 0.45858  -0.120846792453
 C1 0.945292 0.302549 0.45858  -0.120846792453
 C1 0.94529 0.802555 0.45858  -0.120846792453
 C2 0.012472 0.38495 0.60336  0.695598207547
 C2 0.012463 0.884954 0.60336  0.695598207547
 C2 0.512454 0.384952 0.60336  0.695598207547
 C2 0.512453 0.884957 0.60336  0.695598207547
 C3 0.46202 0.365317 0.52098  -0.166511792453
 C3 0.462019 0.865323 0.52098  -0.166511792453
 C3 0.962012 0.365316 0.52098  -0.166511792453
 C3 0.962003 0.865319 0.52098  -0.166511792453
 C1 0.385852 0.394163 0.43015  -0.120846792453
 C1 0.385842 0.894165 0.43015  -0.120846792453
 C1 0.885837 0.394159 0.43015  -0.120846792453
 C1 0.885835 0.894165 0.43015  -0.120846792453
 C4 0.400358 0.286821 0.38147  0.166978207547
 C4 0.400354 0.786826 0.38147  0.166978207547
 C4 0.900347 0.286819 0.3814  0.166978207547
 C4 0.900341 0.786823 0.38147  0.166978207547
 C5 0.334091 0.241866 0.25340  0.364008207547
 C5 0.334085 0.74187 0.25340  0.364008207547
 C5 0.834079 0.241863 0.25340  0.364008207547
 C5 0.834073 0.741867 0.2534  0.364008207547
 C4 0.368831 0.331198 0.36766  0.166978207547
 C4 0.368821 0.8312 0.36766  0.166978207547
 C4 0.868816 0.331194 0.36766  0.166978207547
 C4 0.868813 0.8312 0.36766  0.166978207547
 C1 0.433101 0.410717 0.50578  -0.120846792453
 C1 0.433088 0.910717 0.50579  -0.120846792453
 C1 0.933083 0.410711 0.50579  -0.120846792453
 C1 0.933085 0.910719 0.50578  -0.120846792453
 C6 0.293292 0.190524 0.16723  0.153513207547
 C6 0.293288 0.690529 0.16723  0.153513207547
 C6 0.793281 0.190522 0.16723  0.153513207547
 C6 0.793274 0.690526 0.16723  0.153513207547
 C7 0.217216 0.132629 0.17521  -0.350786792453
 C7 0.217213 0.632633 0.17521  -0.350786792453
 C7 0.717205 0.132627 0.17521  -0.350786792453
 C7 0.717197 0.632631 0.17521  -0.350786792453
 C1 0.142912 0.198163 0.04126  -0.120846792453
 C1 0.142905 0.698164 0.04126  -0.120846792453
 C1 0.642898 0.198162 0.04126  -0.120846792453
 C1 0.642894 0.698169 0.04126  -0.120846792453
 C2 0.128001 0.115615 0.89658  0.695598207547
 C2 0.127995 0.615616 0.89658  0.695598207547
 C2 0.627987 0.115615 0.89658  0.695598207547
 C2 0.627985 0.61562 0.89658  0.695598207547
 C3 0.097235 0.13541 0.9789  -0.166511792453
 C3 0.097228 0.635411 0.9789  -0.166511792453
 C3 0.59722 0.135409 0.97893  -0.166511792453
 C3 0.597218 0.635415 0.97893  -0.166511792453
 C1 0.492695 0.106584 0.06982  -0.120846792453
 C1 0.492693 0.60659 0.06982  -0.120846792453
 C1 0.992687 0.106583 0.06982  -0.120846792453
 C1 0.992679 0.606585 0.06982  -0.120846792453
 C4 0.113761 0.2139 0.11841  0.166978207547
 C4 0.113754 0.713902 0.11841  0.166978207547
 C4 0.613747 0.213898 0.11841  0.166978207547
 C4 0.613744 0.713905 0.11841  0.166978207547
 C5 0.092434 0.258843 0.24653  0.364008207547
 C5 0.092426 0.758846 0.24653  0.364008207547
 C5 0.59242 0.258842 0.24653  0.364008207547
 C5 0.592416 0.758848 0.24653  0.364008207547
 C4 0.03831 0.169525 0.13231  0.166978207547
 C4 0.038303 0.669527 0.13231  0.166978207547
 C4 0.538295 0.169524 0.13231  0.166978207547
 C4 0.538291 0.669532 0.13231  0.166978207547
 C1 0.02332 0.090056 0.99416  -0.120846792453
 C1 0.023313 0.590058 0.99416  -0.120846792453
 C1 0.523303 0.090057 0.99416  -0.120846792453
 C1 0.523299 0.590064 0.99416  -0.120846792453
 C6 0.102952 0.310219 0.33273  0.153513207547
 C6 0.102945 0.810221 0.33273  0.153513207547
 C6 0.602938 0.310217 0.33274  0.153513207547
 C6 0.602935 0.810223 0.33274  0.153513207547
 C7 0.084153 0.368116 0.32495  -0.350786792453
 C7 0.084146 0.868119 0.32495  -0.350786792453
 C7 0.584141 0.368115 0.32495  -0.350786792453
 C7 0.584137 0.868121 0.32495  -0.350786792453
 C1 0.05469 0.197476 0.54144  -0.120846792453
 C1 0.054686 0.697482 0.54144  -0.120846792453
 C1 0.554682 0.197482 0.54144  -0.120846792453
 C1 0.554671 0.697484 0.54144  -0.120846792453
 C2 0.487512 0.115075 0.39667  0.695598207547
 C2 0.487521 0.615084 0.3966  0.695598207547
 C2 0.987514 0.115077 0.39666  0.695598207547
 C2 0.987504 0.61508 0.39667  0.695598207547
 C3 0.037974 0.134711 0.47904  -0.166511792453
 C3 0.037964 0.634713 0.47904  -0.166511792453
 C3 0.537947 0.134708 0.47905  -0.166511792453
 C3 0.537956 0.634719 0.47904  -0.166511792453
 C1 0.114148 0.105869 0.56987  -0.120846792453
 C1 0.114139 0.605871 0.56987  -0.120846792453
 C1 0.614129 0.105869 0.56987  -0.120846792453
 C1 0.614129 0.605876 0.56987  -0.120846792453
 C4 0.099637 0.213208 0.61856  0.166978207547
 C4 0.099631 0.713212 0.61856  0.166978207547
 C4 0.599622 0.21321 0.61856  0.166978207547
 C4 0.599619 0.713215 0.61856  0.166978207547
 C5 0.165907 0.258165 0.74662  0.364008207547
 C5 0.165902 0.758169 0.74662  0.364008207547
 C5 0.665895 0.258168 0.74662  0.364008207547
 C5 0.665888 0.758172 0.74662  0.364008207547
 C4 0.131168 0.168833 0.63236  0.166978207547
 C4 0.131162 0.668837 0.63236  0.166978207547
 C4 0.631156 0.168836 0.63236  0.166978207547
 C4 0.631149 0.66884 0.6323  0.166978207547
 C1 0.066899 0.089315 0.49424  -0.120846792453
 C1 0.066893 0.589319 0.49424  -0.120846792453
 C1 0.566887 0.089318 0.4942  -0.120846792453
 C1 0.56688 0.589322 0.49424  -0.120846792453
 C6 0.206705 0.309508 0.83279  0.153513207547
 C6 0.206701 0.809513 0.83279  0.153513207547
 C6 0.706693 0.309512 0.8327  0.153513207547
 C6 0.706687 0.809516 0.83279  0.153513207547
 C7 0.282782 0.367401 0.82480  -0.350786792453
 C7 0.282779 0.867404 0.82480  -0.350786792453
 C7 0.782772 0.367402 0.82480  -0.350786792453
 C7 0.782765 0.867408 0.82480  -0.350786792453
 C1 0.357087 0.301871 0.95876  -0.120846792453
 C1 0.357079 0.801873 0.95876  -0.120846792453
 C1 0.857073 0.301867 0.95876  -0.120846792453
 C1 0.857069 0.801874 0.95876  -0.120846792453
 C2 0.371995 0.384425 0.10344  0.695598207547
 C2 0.371989 0.884425 0.10344  0.695598207547
 C2 0.87198 0.38442 0.10344  0.695598207547
 C2 0.871979 0.884426 0.10344  0.695598207547
 C3 0.402762 0.364627 0.02109  -0.166511792453
 C3 0.402756 0.864628 0.021  -0.166511792453
 C3 0.902747 0.364623 0.02109  -0.166511792453
 C3 0.902746 0.864628 0.02109  -0.166511792453
 C1 0.007299 0.393444 0.93020  -0.120846792453
 C1 0.007296 0.89345 0.93020  -0.120846792453
 C1 0.507287 0.393449 0.93020  -0.120846792453
 C1 0.50728 0.893452 0.93020  -0.120846792453
 C4 0.386237 0.286132 0.88161  0.166978207547
 C4 0.38623 0.786135 0.88161  0.166978207547
 C4 0.886222 0.28613 0.88161  0.166978207547
 C4 0.886219 0.786136 0.88161  0.166978207547
 C5 0.407566 0.241186 0.75349  0.364008207547
 C5 0.407558 0.74119 0.75349  0.364008207547
 C5 0.90755 0.241185 0.75349  0.364008207547
 C5 0.907547 0.741191 0.75349  0.364008207547
 C4 0.461689 0.330506 0.86771  0.166978207547
 C4 0.461681 0.830509 0.86771  0.166978207547
 C4 0.961675 0.330502 0.86771  0.166978207547
 C4 0.961672 0.830509 0.86771  0.166978207547
 C1 0.476679 0.409978 0.00586  -0.120846792453
 C1 0.476671 0.909981 0.00586  -0.120846792453
 C1 0.976667 0.409973 0.00586  -0.120846792453
 C1 0.976663 0.909979 0.00586  -0.120846792453
 C6 0.397047 0.189811 0.66729  0.153513207547
 C6 0.39704 0.689814 0.66729  0.153513207547
 C6 0.897031 0.189811 0.66729  0.153513207547
 C6 0.897028 0.689816 0.66729  0.153513207547
 C7 0.415845 0.131913 0.67507  -0.350786792453
 C7 0.415838 0.631916 0.67507  -0.350786792453
 C7 0.915827 0.131911 0.67507  -0.350786792453
 C7 0.915824 0.631917 0.67507  -0.350786792453
 N1 0.378497 0.231035 0.30727  -0.514569292453
 N1 0.37849 0.731039 0.30727  -0.514569292453
 N1 0.878484 0.231032 0.30727  -0.514569292453
 N1 0.878479 0.731037 0.30727  -0.514569292453
 N1 0.326066 0.301007 0.28603  -0.514569292453
 N1 0.326059 0.801011 0.2860  -0.514569292453
 N1 0.826053 0.301004 0.28603  -0.514569292453
 N1 0.826048 0.801009 0.2860  -0.514569292453
 N1 0.147392 0.26969 0.1925  -0.514569292453
 N1 0.147385 0.769693 0.1925  -0.514569292453
 N1 0.647379 0.269688 0.19259  -0.514569292453
 N1 0.647374 0.769695 0.19259  -0.514569292453
 N1 0.025727 0.199681 0.21400  -0.514569292453
 N1 0.02572 0.699684 0.21400  -0.514569292453
 N1 0.525712 0.19968 0.21400  -0.514569292453
 N1 0.525709 0.699687 0.21400  -0.514569292453
 N1 0.1215 0.268995 0.69275  -0.514569292453
 N1 0.121497 0.769 0.69275  -0.514569292453
 N1 0.621492 0.269001 0.69275  -0.514569292453
 N1 0.621482 0.769002 0.69275  -0.514569292453
 N1 0.173933 0.199024 0.71399  -0.514569292453
 N1 0.173926 0.699027 0.71399  -0.514569292453
 N1 0.673916 0.199025 0.71399  -0.514569292453
 N1 0.673914 0.699031 0.71399  -0.514569292453
 N1 0.352607 0.23034 0.80744  -0.514569292453
 N1 0.3526 0.730343 0.80744  -0.514569292453
 N1 0.852592 0.230338 0.80744  -0.514569292453
 N1 0.852588 0.730345 0.80744  -0.514569292453
 N1 0.474272 0.300349 0.78602  -0.514569292453
 N1 0.474265 0.800352 0.78602  -0.514569292453
 N1 0.974257 0.300347 0.78602  -0.514569292453
 N1 0.974255 0.800352 0.78602  -0.514569292453
 O1 0.037224 0.446896 0.65207  -0.613621792453
 O1 0.037224 0.946902 0.65206  -0.613621792453
 O1 0.537214 0.4469 0.65206  -0.613621792453
 O1 0.537205 0.946903 0.65207  -0.613621792453
 O2 0.146757 0.431757 0.78079  -0.986066792453
 O2 0.146752 0.931763 0.78079  -0.986066792453
 O2 0.646742 0.431762 0.78079  -0.986066792453
 O2 0.646738 0.931765 0.78079  -0.986066792453
 O1 0.027607 0.338647 0.61863  -0.613621792453
 O1 0.027608 0.838654 0.61863  -0.613621792453
 O1 0.527598 0.338651 0.61863  -0.613621792453
 O1 0.527587 0.838654 0.61863  -0.613621792453
 O3 0.343811 0.159755 0.1258  -0.559556792453
 O3 0.343808 0.659761 0.12580  -0.559556792453
 O3 0.8438 0.159752 0.12580  -0.559556792453
 O3 0.843792 0.659755 0.12581  -0.559556792453
 O1 0.090554 0.053843 0.84758  -0.613621792453
 O1 0.090549 0.553844 0.84758  -0.613621792453
 O1 0.590538 0.053844 0.84758  -0.613621792453
 O1 0.590534 0.553851 0.84757  -0.613621792453
 O2 0.215692 0.067591 0.71964  -0.986066792453
 O2 0.215687 0.567594 0.71964  -0.986066792453
 O2 0.715678 0.067592 0.71963  -0.986066792453
 O2 0.715674 0.567598 0.71963  -0.986066792453
 O1 0.18962 0.16153 0.88157  -0.613621792453
 O1 0.189613 0.661532 0.88157  -0.613621792453
 O1 0.689605 0.161531 0.88157  -0.613621792453
 O1 0.689601 0.661538 0.88157  -0.613621792453
 O3 0.184221 0.34103 0.37372  -0.559556792453
 O3 0.184214 0.841033 0.37372  -0.559556792453
 O3 0.684207 0.341027 0.37372  -0.559556792453
 O3 0.684204 0.841034 0.37372  -0.559556792453
 O1 0.462772 0.053132 0.34795  -0.613621792453
 O1 0.462762 0.553137 0.34796  -0.613621792453
 O1 0.962755 0.053129 0.34796  -0.613621792453
 O1 0.962752 0.553134 0.34796  -0.613621792453
 O2 0.353231 0.068276 0.21923  -0.986066792453
 O2 0.353227 0.568283 0.21923  -0.986066792453
 O2 0.85322 0.068275 0.21923  -0.986066792453
 O2 0.853215 0.568278 0.21923  -0.986066792453
 O1 0.472392 0.161382 0.38139  -0.613621792453
 O1 0.472381 0.661386 0.38139  -0.613621792453
 O1 0.972375 0.161379 0.38139  -0.613621792453
 O1 0.972371 0.661383 0.38139  -0.613621792453
 O3 0.156187 0.340281 0.87421  -0.559556792453
 O3 0.156184 0.840287 0.87421  -0.559556792453
 O3 0.656177 0.340287 0.87421  -0.559556792453
 O3 0.656169 0.840289 0.87421  -0.559556792453
 O1 0.409434 0.4462 0.15243  -0.613621792453
 O1 0.409429 0.946201 0.15243  -0.613621792453
 O1 0.909424 0.446194 0.15244  -0.613621792453
 O1 0.909419 0.9462 0.1524  -0.613621792453
 O2 0.284306 0.43244 0.28038  -0.986066792453
 O2 0.284299 0.932443 0.28038  -0.986066792453
 O2 0.784292 0.432436 0.28038  -0.986066792453
 O2 0.784289 0.932442 0.28038  -0.986066792453
 O1 0.310386 0.338505 0.1184  -0.613621792453
 O1 0.310377 0.838507 0.11845  -0.613621792453
 O1 0.810372 0.3385 0.1184  -0.613621792453
 O1 0.810368 0.838506 0.1184  -0.613621792453
 O3 0.315779 0.159 0.62630  -0.559556792453
 O3 0.315771 0.659003 0.62630  -0.559556792453
 O3 0.815763 0.159001 0.62630  -0.559556792453
 O3 0.81576 0.659007 0.62630  -0.559556792453
