#======================================================================

# CRYSTAL DATA

#----------------------------------------------------------------------

data_VESTA_phase_1


_pd_phase_name                         MOF
_cell_length_a                         12.75400
_cell_length_b                         12.73700
_cell_length_c                         25.66100
_cell_angle_alpha                      90.00400
_cell_angle_beta                       90.02600
_cell_angle_gamma                      89.90000
_symmetry_space_group_name_H-M         "P 1"
_symmetry_Int_Tables_number            1

loop_
_symmetry_equiv_pos_as_xyz
   "x, y, z"

loop_
   _atom_site_label
   _atom_site_fract_x
   _atom_site_fract_y
   _atom_site_fract_z
 _atom_site_charge
 Zn1 0.039102 0.932868 0.43804  0.825131666667
 Zn1 0.462128 0.568311 0.4383  0.825131666667
 Zn1 0.568741 0.036789 0.43799  0.825131666667
 Zn1 0.932606 0.462368 0.43817  0.825131666667
 Zn1 0.462236 0.933006 0.06182  0.825131666667
 Zn1 0.038551 0.568295 0.06199  0.825131666667
 Zn1 0.932648 0.039018 0.06188  0.825131666667
 Zn1 0.5686 0.462235 0.0617  0.825131666667
 Zn1 0.960864 0.067155 0.56193  0.825131666667
 Zn1 0.537867 0.43172 0.56168  0.825131666667
 Zn1 0.431239 0.963244 0.56199  0.825131666667
 Zn1 0.067379 0.537646 0.56179  0.825131666667
 Zn1 0.537736 0.066985 0.93817  0.825131666667
 Zn1 0.961443 0.43168 0.93799  0.825131666667
 Zn1 0.067346 0.960935 0.93808  0.825131666667
 Zn1 0.431399 0.537756 0.93820  0.825131666667
 H1 0.279528 0.946556 0.46568  0.0972783333333
 H1 0.057926 0.929907 0.23195  0.0972783333333
 H1 0.185144 0.934227 0.15803  0.0972783333333
 H2 0.263999 0.021658 0.64937  0.359166666667
 H2 0.125592 0.046069 0.64895  0.359166666667
 H1 0.220871 0.557135 0.4657  0.0972783333333
 H1 0.441389 0.571371 0.23315  0.0972783333333
 H1 0.314003 0.567686 0.15922  0.0972783333333
 H2 0.234726 0.478597 0.64910  0.359166666667
 H2 0.37298 0.45306 0.64874  0.359166666667
 H1 0.559496 0.278608 0.46562  0.0972783333333
 H1 0.572022 0.05694 0.23198  0.0972783333333
 H1 0.567728 0.184409 0.1580  0.0972783333333
 H2 0.47948 0.265275 0.64879  0.359166666667
 H2 0.452939 0.127123 0.6484  0.359166666667
 H1 0.941687 0.220875 0.46572  0.0972783333333
 H1 0.927733 0.443515 0.23339  0.0972783333333
 H1 0.931227 0.317492 0.15885  0.0972783333333
 H2 0.020178 0.234225 0.64924  0.359166666667
 H2 0.045952 0.372461 0.64876  0.359166666667
 H1 0.220884 0.942962 0.03428  0.0972783333333
 H1 0.441649 0.928569 0.26684  0.0972783333333
 H1 0.314402 0.931419 0.34076  0.0972783333333
 H2 0.234496 0.019702 0.85070  0.359166666667
 H2 0.37255 0.045816 0.85114  0.359166666667
 H1 0.278987 0.557227 0.0341  0.0972783333333
 H1 0.057725 0.571864 0.26803  0.0972783333333
 H1 0.185073 0.568172 0.34196  0.0972783333333
 H2 0.264124 0.479069 0.85083  0.359166666667
 H2 0.126116 0.452621 0.85131  0.359166666667
 H1 0.942898 0.279101 0.03378  0.0972783333333
 H1 0.927592 0.058674 0.26644  0.0972783333333
 H1 0.930999 0.184663 0.34097  0.0972783333333
 H2 0.020101 0.264182 0.85024  0.359166666667
 H2 0.045556 0.12576 0.85085  0.359166666667
 H1 0.559332 0.220882 0.03398  0.0972783333333
 H1 0.574086 0.441095 0.26687  0.0972783333333
 H1 0.57135 0.313664 0.34081  0.0972783333333
 H2 0.478929 0.234476 0.8508  0.359166666667
 H2 0.452644 0.372756 0.85125  0.359166666667
 H1 0.720425 0.053381 0.5343  0.0972783333333
 H1 0.942013 0.070195 0.76802  0.0972783333333
 H1 0.814807 0.065871 0.84194  0.0972783333333
 H2 0.735963 0.978395 0.35061  0.359166666667
 H2 0.874374 0.954 0.35102  0.359166666667
 H1 0.779134 0.442826 0.53426  0.0972783333333
 H1 0.558582 0.428732 0.76685  0.0972783333333
 H1 0.685968 0.432412 0.84078  0.0972783333333
 H2 0.76523 0.521398 0.35087  0.359166666667
 H2 0.626981 0.546955 0.35124  0.359166666667
 H1 0.440499 0.721432 0.53437  0.0972783333333
 H1 0.427886 0.943046 0.76800  0.0972783333333
 H1 0.432122 0.815577 0.84190  0.0972783333333
 H2 0.520496 0.73475 0.35119  0.359166666667
 H2 0.547031 0.872903 0.35157  0.359166666667
 H1 0.058377 0.779115 0.53421  0.0972783333333
 H1 0.072268 0.556496 0.76656  0.0972783333333
 H1 0.068762 0.682511 0.84110  0.0972783333333
 H2 0.979744 0.765806 0.35071  0.359166666667
 H2 0.953973 0.62757 0.35119  0.359166666667
 H1 0.779106 0.056853 0.96566  0.0972783333333
 H1 0.558285 0.071395 0.73314  0.0972783333333
 H1 0.685524 0.068554 0.65921  0.0972783333333
 H2 0.765546 0.979972 0.14923  0.359166666667
 H2 0.627494 0.953886 0.14879  0.359166666667
 H1 0.721065 0.442374 0.96592  0.0972783333333
 H1 0.942248 0.42797 0.7319  0.0972783333333
 H1 0.814908 0.431664 0.65804  0.0972783333333
 H2 0.735913 0.520745 0.14920  0.359166666667
 H2 0.873911 0.547261 0.14871  0.359166666667
 H1 0.057086 0.720852 0.96617  0.0972783333333
 H1 0.072286 0.941343 0.73352  0.0972783333333
 H1 0.068887 0.815356 0.65898  0.0972783333333
 H2 0.979767 0.735728 0.14970  0.359166666667
 H2 0.954333 0.874152 0.14909  0.359166666667
 H1 0.44055 0.779096 0.96602  0.0972783333333
 H1 0.425857 0.558896 0.73310  0.0972783333333
 H1 0.428628 0.686333 0.6591  0.0972783333333
 H2 0.52103 0.76547 0.14919  0.359166666667
 H2 0.547371 0.6272 0.14873  0.359166666667
 C1 0.189639 0.003227 0.57898  0.641601666667
 C2 0.233813 0.965813 0.50004  0.229441666667
 C3 0.178222 0.930681 0.29092  -0.120838333333
 C4 0.141993 0.930446 0.23928  -0.0539483333333
 C4 0.212919 0.932572 0.19814  -0.0539483333333
 C5 0.101365 0.929434 0.33492  0.678301666667
 C1 0.309412 0.496854 0.57884  0.641601666667
 C2 0.266144 0.53672 0.50007  0.229441666667
 C3 0.321147 0.569691 0.2921  -0.120838333333
 C4 0.357324 0.570604 0.24049  -0.0539483333333
 C4 0.286298 0.568876 0.19933  -0.0539483333333
 C5 0.397624 0.570671 0.33630  0.678301666667
 C1 0.497744 0.190375 0.57856  0.641601666667
 C2 0.53857 0.233362 0.49989  0.229441666667
 C3 0.571686 0.177304 0.29098  -0.120838333333
 C4 0.571693 0.141116 0.23933  -0.0539483333333
 C4 0.569584 0.212194 0.19818  -0.0539483333333
 C5 0.572701 0.10026 0.33499  0.678301666667
 C1 0.00191 0.309117 0.57890  0.641601666667
 C2 0.962175 0.266059 0.50009  0.229441666667
 C3 0.929512 0.321942 0.29179  -0.120838333333
 C4 0.928532 0.3592 0.24033  -0.0539483333333
 C4 0.930167 0.288934 0.19883  -0.0539483333333
 C5 0.929023 0.397899 0.33623  0.678301666667
 C1 0.30917 0.00244 0.92107  0.641601666667
 C2 0.266063 0.963167 0.99990  0.229441666667
 C3 0.321311 0.93152 0.20785  -0.120838333333
 C4 0.357575 0.929682 0.25948  -0.0539483333333
 C4 0.286616 0.930991 0.30065  -0.0539483333333
 C5 0.397741 0.930923 0.16368  0.678301666667
 C1 0.189789 0.49675 0.92119  0.641601666667
 C2 0.233486 0.536713 0.99988  0.229441666667
 C3 0.177924 0.569712 0.20906  -0.120838333333
 C4 0.14178 0.570896 0.26069  -0.0539483333333
 C4 0.212774 0.569122 0.30185  -0.0539483333333
 C5 0.101001 0.570784 0.16505  0.678301666667
 C1 0.001842 0.189685 0.92063  0.641601666667
 C2 0.962937 0.233557 0.99945  0.229441666667
 C3 0.929626 0.180233 0.20804  -0.120838333333
 C4 0.928407 0.142985 0.25950  -0.0539483333333
 C4 0.930112 0.213236 0.30100  -0.0539483333333
 C5 0.929091 0.104228 0.16363  0.678301666667
 C1 0.497156 0.309288 0.92107  0.641601666667
 C2 0.538299 0.266141 0.99970  0.229441666667
 C3 0.570799 0.320727 0.20788  -0.120838333333
 C4 0.572861 0.356918 0.25953  -0.0539483333333
 C4 0.571596 0.285844 0.30070  -0.0539483333333
 C5 0.571242 0.397393 0.16372  0.678301666667
 C1 0.810327 0.996809 0.42100  0.641601666667
 C2 0.766145 0.034155 0.49995  0.229441666667
 C3 0.82171 0.06935 0.70905  -0.120838333333
 C4 0.857945 0.069622 0.76069  -0.0539483333333
 C4 0.787026 0.067496 0.80183  -0.0539483333333
 C5 0.898573 0.0706 0.6650  0.678301666667
 C1 0.690568 0.50315 0.4211  0.641601666667
 C2 0.733853 0.46326 0.49990  0.229441666667
 C3 0.678829 0.430274 0.70787  -0.120838333333
 C4 0.642648 0.429458 0.75950  -0.0539483333333
 C4 0.713673 0.431156 0.8006  -0.0539483333333
 C5 0.602359 0.429333 0.66369  0.678301666667
 C1 0.502227 0.809656 0.42143  0.641601666667
 C2 0.461419 0.766674 0.50010  0.229441666667
 C3 0.428255 0.822691 0.70900  -0.120838333333
 C4 0.428217 0.858871 0.76065  -0.0539483333333
 C4 0.430308 0.78779 0.80180  -0.0539483333333
 C5 0.427261 0.899744 0.66498  0.678301666667
 C1 0.998043 0.6909 0.42104  0.641601666667
 C2 0.037862 0.733938 0.4998  0.229441666667
 C3 0.07041 0.678074 0.70816  -0.120838333333
 C4 0.071455 0.640813 0.75962  -0.0539483333333
 C4 0.069792 0.711073 0.8011  -0.0539483333333
 C5 0.07092 0.602114 0.66373  0.678301666667
 C1 0.690877 0.997227 0.07886  0.641601666667
 C2 0.733941 0.036644 0.  0.229441666667
 C3 0.678634 0.068509 0.79212  -0.120838333333
 C4 0.642361 0.070313 0.74049  -0.0539483333333
 C4 0.713315 0.069007 0.6993  -0.0539483333333
 C5 0.602216 0.069103 0.83630  0.678301666667
 C1 0.810251 0.503043 0.07884  0.641601666667
 C2 0.76656 0.462975 0.  0.229441666667
 C3 0.822047 0.430267 0.79093  -0.120838333333
 C4 0.858192 0.428989 0.7393  -0.0539483333333
 C4 0.787203 0.430793 0.69815  -0.0539483333333
 C5 0.898979 0.429217 0.83495  0.678301666667
 C1 0.99806 0.810237 0.0793  0.641601666667
 C2 0.037034 0.766385 0.  0.229441666667
 C3 0.070333 0.819776 0.7919  -0.120838333333
 C4 0.071485 0.857031 0.7404  -0.0539483333333
 C4 0.069817 0.786779 0.69895  -0.0539483333333
 C5 0.070872 0.89577 0.83633  0.678301666667
 C1 0.502819 0.690678 0.07891  0.641601666667
 C2 0.461624 0.733835 0.  0.229441666667
 C3 0.429107 0.679257 0.79209  -0.120838333333
 C4 0.427078 0.643072 0.74044  -0.0539483333333
 C4 0.428354 0.714152 0.69927  -0.0539483333333
 C5 0.428669 0.60259 0.83625  0.678301666667
 N1 0.100389 0.000381 0.55028  -0.346063333333
 N1 0.130796 0.977363 0.49914  -0.346063333333
 N2 0.274859 0.980641 0.54828  -0.564098333333
 N3 0.193481 0.024738 0.63010  -0.679298333333
 N1 0.398892 0.499598 0.55036  -0.346063333333
 N1 0.369087 0.524252 0.49932  -0.346063333333
 N2 0.224557 0.521047 0.54814  -0.564098333333
 N3 0.305045 0.473689 0.62979  -0.679298333333
 N1 0.500564 0.100788 0.55006  -0.346063333333
 N1 0.525717 0.130393 0.49906  -0.346063333333
 N2 0.522571 0.275073 0.54792  -0.564098333333
 N3 0.473703 0.194991 0.62938  -0.679298333333
 N1 0.999793 0.398708 0.55036  -0.346063333333
 N1 0.975269 0.369012 0.4993  -0.346063333333
 N2 0.977304 0.224358 0.54820  -0.564098333333
 N3 0.024875 0.304588 0.62987  -0.679298333333
 N1 0.398626 0.000186 0.9496  -0.346063333333
 N1 0.368921 0.97598 0.00071  -0.346063333333
 N2 0.224438 0.978212 0.95176  -0.564098333333
 N3 0.30468 0.025366 0.87009  -0.679298333333
 N1 0.100524 0.49924 0.94985  -0.346063333333
 N1 0.130645 0.523933 0.00085  -0.346063333333
 N2 0.274738 0.521231 0.95173  -0.564098333333
 N3 0.193995 0.473445 0.87026  -0.679298333333
 N1 0.999636 0.1003 0.94931  -0.346063333333
 N1 0.975659 0.130553 0.00037  -0.346063333333
 N2 0.977815 0.274811 0.95124  -0.564098333333
 N3 0.024239 0.193753 0.86961  -0.679298333333
 N1 0.499887 0.398898 0.94957  -0.346063333333
 N1 0.525359 0.36916 0.00054  -0.346063333333
 N2 0.522213 0.224435 0.95166  -0.564098333333
 N3 0.473045 0.304718 0.87023  -0.679298333333
 N1 0.899575 0.999635 0.44970  -0.346063333333
 N1 0.869163 0.022609 0.50084  -0.346063333333
 N2 0.725106 0.019367 0.45171  -0.564098333333
 N3 0.806491 0.975366 0.36987  -0.679298333333
 N1 0.601097 0.50042 0.44963  -0.346063333333
 N1 0.630913 0.475752 0.50067  -0.346063333333
 N2 0.775429 0.478928 0.45183  -0.564098333333
 N3 0.694918 0.526302 0.37019  -0.679298333333
 N1 0.499402 0.899247 0.44992  -0.346063333333
 N1 0.474259 0.869645 0.50092  -0.346063333333
 N2 0.477415 0.72496 0.45207  -0.564098333333
 N3 0.526261 0.805038 0.37060  -0.679298333333
 N1 0.0 0.601303 0.44957  -0.346063333333
 N1 0.024768 0.630986 0.50063  -0.346063333333
 N2 0.022678 0.775652 0.45174  -0.564098333333
 N3 0.975011 0.695447 0.37008  -0.679298333333
 N1 0.601398 0.999623 0.05033  -0.346063333333
 N1 0.631074 0.023904 0.99925  -0.346063333333
 N2 0.775595 0.021482 0.04817  -0.564098333333
 N3 0.695415 0.97404 0.12981  -0.679298333333
 N1 0.899507 0.500611 0.05018  -0.346063333333
 N1 0.869388 0.475843 0.99918  -0.346063333333
 N2 0.725308 0.478485 0.04831  -0.564098333333
 N3 0.806047 0.526343 0.12978  -0.679298333333
 N1 0.0 0.899632 0.05065  -0.346063333333
 N1 0.024345 0.869392 0.99959  -0.346063333333
 N2 0.022096 0.725115 0.04870  -0.564098333333
 N3 0.975545 0.806143 0.13032  -0.679298333333
 N1 0.500152 0.601082 0.05040  -0.346063333333
 N1 0.474639 0.630826 0.99944  -0.346063333333
 N2 0.477696 0.775528 0.04834  -0.564098333333
 N3 0.52692 0.695235 0.12976  -0.679298333333
 O1 0.138319 0.95165 0.38063  -0.589218333333
 O2 0.006353 0.906116 0.32681  -0.631168333333
 O1 0.360567 0.547284 0.38181  -0.589218333333
 O2 0.4926 0.595075 0.32870  -0.631168333333
 O1 0.550806 0.137347 0.38073  -0.589218333333
 O2 0.595468 0.004907 0.3268  -0.631168333333
 O1 0.951307 0.360032 0.38174  -0.589218333333
 O2 0.906279 0.493518 0.3287  -0.631168333333
 O1 0.360558 0.954633 0.11820  -0.589218333333
 O2 0.492818 0.906531 0.17125  -0.631168333333
 O1 0.137688 0.547153 0.11947  -0.589218333333
 O2 0.006179 0.59538 0.17306  -0.631168333333
 O1 0.951116 0.141959 0.11807  -0.589218333333
 O2 0.906365 0.008709 0.17115  -0.631168333333
 O1 0.547572 0.360366 0.11821  -0.589218333333
 O2 0.595414 0.49254 0.17135  -0.631168333333
 O1 0.861632 0.04839 0.61934  -0.589218333333
 O2 0.993576 0.093941 0.6731  -0.631168333333
 O1 0.639426 0.452737 0.61818  -0.589218333333
 O2 0.507376 0.404952 0.67129  -0.631168333333
 O1 0.44918 0.862671 0.61925  -0.589218333333
 O2 0.404514 0.995101 0.67313  -0.631168333333
 O1 0.048689 0.639984 0.61821  -0.589218333333
 O2 0.093702 0.506507 0.67120  -0.631168333333
 O1 0.639415 0.045417 0.88178  -0.589218333333
 O2 0.507132 0.093477 0.82874  -0.631168333333
 O1 0.862304 0.452884 0.88053  -0.589218333333
 O2 0.993801 0.404627 0.82694  -0.631168333333
 O1 0.048817 0.858037 0.88188  -0.589218333333
 O2 0.093603 0.991293 0.82882  -0.631168333333
 O1 0.452265 0.63964 0.8817  -0.589218333333
 O2 0.40456 0.507429 0.82863  -0.631168333333
