#======================================================================

# CRYSTAL DATA

#----------------------------------------------------------------------

data_VESTA_phase_1


_pd_phase_name                         MOF
_cell_length_a                         18.53800
_cell_length_b                         16.29700
_cell_length_c                         16.33800
_cell_angle_alpha                      63.26900
_cell_angle_beta                       79.28400
_cell_angle_gamma                      100.92900
_symmetry_space_group_name_H-M         "P 1"
_symmetry_Int_Tables_number            1

loop_
_symmetry_equiv_pos_as_xyz
   "x, y, z"

loop_
   _atom_site_label
   _atom_site_fract_x
   _atom_site_fract_y
   _atom_site_fract_z
 _atom_site_charge
 Fe1 0.250017 0.999994 0.49998  0.0975089542484
 Fe1 0.750008 0.99999 0.49997  0.0975089542484
 Fe1 0.0 0.500008 0.49997  0.0975089542484
 Fe1 0.500014 0.500005 0.49997  0.0975089542484
 Fe1 0.250006 0.499984 0.99998  0.0975089542484
 Fe1 0.750019 0.49999 0.99998  0.0975089542484
 H1 0.044213 0.977197 0.34636  0.103313745915
 H1 0.544201 0.977189 0.34636  0.103313745915
 H1 0.125435 0.099499 0.17371  0.103313745915
 H1 0.625418 0.099487 0.17371  0.103313745915
 H1 0.266062 0.179093 0.14156  0.103313745915
 H1 0.766046 0.179084 0.14155  0.103313745915
 H1 0.31982 0.133796 0.27966  0.103313745915
 H1 0.819812 0.133792 0.27964  0.103313745915
 H1 0.392838 0.725772 0.64112  0.103313745915
 H1 0.892872 0.725733 0.64113  0.103313745915
 H1 0.286392 0.595275 0.78492  0.103313745915
 H1 0.786422 0.59524 0.78493  0.103313745915
 H1 0.386093 0.653353 0.96853  0.103313745915
 H1 0.886086 0.653378 0.96854  0.103313745915
 H1 0.499461 0.781102 0.83169  0.103313745915
 H1 0.999456 0.781127 0.83169  0.103313745915
 H1 0.2182 0.344386 0.6775  0.103313745915
 H1 0.718206 0.344374 0.67751  0.103313745915
 H1 0.214037 0.171592 0.72804  0.103313745915
 H1 0.714047 0.171585 0.72803  0.103313745915
 H1 0.338735 0.140265 0.68029  0.103313745915
 H1 0.838746 0.140269 0.68026  0.103313745915
 H1 0.460845 0.279284 0.58713  0.103313745915
 H1 0.960853 0.279291 0.58710  0.103313745915
 H1 0.213454 0.640088 0.63327  0.103313745915
 H1 0.713456 0.640083 0.63329  0.103313745915
 H1 0.179139 0.784115 0.62031  0.103313745915
 H1 0.679134 0.78411 0.62031  0.103313745915
 H1 0.369327 0.96909 0.37751  0.103313745915
 H1 0.869313 0.969079 0.37750  0.103313745915
 H1 0.413938 0.832037 0.38610  0.103313745915
 H1 0.913929 0.832025 0.38610  0.103313745915
 H1 0.055416 0.676114 0.97650  0.103313745915
 H1 0.555426 0.676119 0.97650  0.103313745915
 H1 0.075676 0.726369 0.09856  0.103313745915
 H1 0.575696 0.726392 0.0985  0.103313745915
 H1 0.177201 0.679799 0.17761  0.103313745915
 H1 0.677224 0.67983 0.17759  0.103313745915
 H1 0.253907 0.587636 0.13226  0.103313745915
 H1 0.753922 0.587654 0.13225  0.103313745915
 H1 0.029914 0.633306 0.72513  0.103313745915
 H1 0.529859 0.633248 0.72519  0.103313745915
 H1 0.488828 0.620219 0.59458  0.103313745915
 H1 0.988891 0.620274 0.59452  0.103313745915
 H1 0.059014 0.377414 0.65373  0.103313745915
 H1 0.559093 0.377462 0.65368  0.103313745915
 H1 0.108205 0.386127 0.7817  0.103313745915
 H1 0.608289 0.386187 0.78170  0.103313745915
 H1 0.455819 0.022773 0.65360  0.103313745915
 H1 0.955815 0.022775 0.65359  0.103313745915
 H1 0.374594 0.900483 0.82625  0.103313745915
 H1 0.874589 0.900494 0.8262  0.103313745915
 H1 0.233962 0.82091 0.85841  0.103313745915
 H1 0.733956 0.820924 0.85840  0.103313745915
 H1 0.180199 0.866214 0.7203  0.103313745915
 H1 0.680195 0.866219 0.72030  0.103313745915
 H1 0.107175 0.27418 0.35883  0.103313745915
 H1 0.607192 0.274189 0.35884  0.103313745915
 H1 0.213625 0.40468 0.21504  0.103313745915
 H1 0.713639 0.404686 0.21504  0.103313745915
 H1 0.113927 0.346625 0.03141  0.103313745915
 H1 0.613928 0.346633 0.03143  0.103313745915
 H1 0.000556 0.218875 0.16825  0.103313745915
 H1 0.500559 0.218883 0.16827  0.103313745915
 H1 0.281834 0.655624 0.32248  0.103313745915
 H1 0.781832 0.655627 0.32245  0.103313745915
 H1 0.285991 0.828419 0.27193  0.103313745915
 H1 0.785993 0.828419 0.27191  0.103313745915
 H1 0.161286 0.85975 0.31964  0.103313745915
 H1 0.661294 0.859744 0.31966  0.103313745915
 H1 0.039175 0.72073 0.41279  0.103313745915
 H1 0.539183 0.720724 0.41282  0.103313745915
 H1 0.286583 0.359918 0.36670  0.103313745915
 H1 0.786592 0.359918 0.36669  0.103313745915
 H1 0.320899 0.215891 0.37966  0.103313745915
 H1 0.820902 0.215887 0.37965  0.103313745915
 H1 0.130693 0.030916 0.62244  0.103313745915
 H1 0.630688 0.030918 0.62242  0.103313745915
 H1 0.086084 0.167971 0.61385  0.103313745915
 H1 0.586083 0.167976 0.6138  0.103313745915
 H1 0.444646 0.323925 0.02340  0.103313745915
 H1 0.94464 0.323906 0.02342  0.103313745915
 H1 0.424375 0.273656 0.90135  0.103313745915
 H1 0.924347 0.273598 0.90141  0.103313745915
 H1 0.322817 0.320172 0.82235  0.103313745915
 H1 0.822785 0.320109 0.82241  0.103313745915
 H1 0.246096 0.41231 0.86772  0.103313745915
 H1 0.746085 0.412283 0.86775  0.103313745915
 H1 0.47018 0.366754 0.2747  0.103313745915
 H1 0.970224 0.366793 0.27472  0.103313745915
 H1 0.011236 0.379821 0.4053  0.103313745915
 H1 0.511204 0.379787 0.40537  0.103313745915
 H1 0.440944 0.622547 0.34626  0.103313745915
 H1 0.94093 0.622538 0.34627  0.103313745915
 H1 0.391754 0.613822 0.21823  0.103313745915
 H1 0.891742 0.613812 0.21824  0.103313745915
 C1 0.099067 0.927933 0.50139  0.287213120915
 C1 0.599059 0.927928 0.50139  0.287213120915
 C1 0.023679 0.834501 0.64180  0.287213120915
 C1 0.523673 0.834507 0.64180  0.287213120915
 C2 0.139567 0.992275 0.40034  0.135265620915
 C2 0.639557 0.992272 0.40033  0.135265620915
 C3 0.105657 0.013121 0.32682  -0.140971379085
 C3 0.605645 0.013114 0.32681  -0.140971379085
 C3 0.150748 0.080597 0.23228  -0.140971379085
 C3 0.650734 0.080588 0.23227  -0.140971379085
 C3 0.228703 0.124998 0.21417  -0.140971379085
 C3 0.72869 0.124989 0.21416  -0.140971379085
 C4 0.259268 0.100816 0.29061  0.0990245098039
 C4 0.75926 0.10081 0.29060  0.0990245098039
 C5 0.45654 0.764116 0.72381  0.0431489542484
 C5 0.956555 0.764108 0.72382  0.0431489542484
 C3 0.393586 0.711423 0.71271  -0.140971379085
 C3 0.893608 0.711402 0.71271  -0.140971379085
 C4 0.333677 0.638781 0.79306  0.0990245098039
 C4 0.8337 0.638756 0.79307  0.0990245098039
 C4 0.389768 0.670637 0.89510  0.0990245098039
 C4 0.889772 0.670649 0.89511  0.0990245098039
 C3 0.452558 0.74241 0.81843  -0.140971379085
 C3 0.95256 0.742423 0.81843  -0.140971379085
 C1 0.34983 0.500616 0.57082  0.287213120915
 C1 0.849831 0.500611 0.57082  0.287213120915
 C1 0.344072 0.641316 0.52329  0.287213120915
 C1 0.844072 0.641308 0.52330  0.287213120915
 C2 0.340286 0.399296 0.60799  0.135265620915
 C2 0.840292 0.39929 0.60800  0.135265620915
 C3 0.27001 0.325223 0.6610  -0.140971379085
 C3 0.770017 0.325215 0.66100  -0.140971379085
 C3 0.268327 0.230579 0.68820  -0.140971379085
 C3 0.768335 0.230574 0.68819  -0.140971379085
 C3 0.337311 0.212914 0.66174  -0.140971379085
 C3 0.83732 0.212916 0.66172  -0.140971379085
 C4 0.405696 0.289861 0.60925  0.0990245098039
 C4 0.905704 0.289865 0.60922  0.0990245098039
 C5 0.317847 0.723419 0.51170  0.0431489542484
 C5 0.817844 0.723411 0.51171  0.0431489542484
 C3 0.249749 0.712033 0.57587  -0.140971379085
 C3 0.749745 0.712026 0.57588  -0.140971379085
 C4 0.230165 0.792514 0.56838  0.0990245098039
 C4 0.730158 0.792507 0.56838  0.0990245098039
 C4 0.33653 0.895304 0.43383  0.0990245098039
 C4 0.836518 0.895295 0.43382  0.0990245098039
 C3 0.360799 0.818505 0.4384  -0.140971379085
 C3 0.860788 0.818494 0.43847  -0.140971379085
 C1 0.135134 0.570781 0.92735  0.287213120915
 C1 0.635149 0.570789 0.92735  0.287213120915
 C1 0.106145 0.523342 0.8344  0.287213120915
 C1 0.606154 0.523343 0.83443  0.287213120915
 C2 0.14369 0.607769 0.99132  0.135265620915
 C2 0.643694 0.607765 0.99133  0.135265620915
 C3 0.099188 0.660102 0.01218  -0.140971379085
 C3 0.599202 0.660115 0.01217  -0.140971379085
 C3 0.110672 0.687166 0.07949  -0.140971379085
 C3 0.610688 0.687183 0.07948  -0.140971379085
 C3 0.16679 0.661313 0.12362  -0.140971379085
 C3 0.666813 0.661342 0.12360  -0.140971379085
 C4 0.209623 0.60943 0.09941  0.0990245098039
 C4 0.709638 0.609447 0.09940  0.0990245098039
 C5 0.074156 0.511685 0.76409  0.0431489542484
 C5 0.574167 0.511683 0.76409  0.0431489542484
 C3 0.037741 0.575868 0.71101  -0.140971379085
 C3 0.537719 0.575837 0.71104  -0.140971379085
 C4 0.014292 0.568339 0.63827  0.0990245098039
 C4 0.514266 0.568307 0.63831  0.0990245098039
 C4 0.054109 0.433738 0.67082  0.0990245098039
 C4 0.554156 0.433762 0.67079  0.0990245098039
 C3 0.080861 0.43845 0.74273  -0.140971379085
 C3 0.580913 0.438482 0.74270  -0.140971379085
 C1 0.400965 0.072045 0.49857  0.287213120915
 C1 0.900958 0.072045 0.49855  0.287213120915
 C1 0.476351 0.165473 0.35816  0.287213120915
 C1 0.976347 0.165464 0.35815  0.287213120915
 C2 0.360463 0.007712 0.59962  0.135265620915
 C2 0.860458 0.007706 0.59961  0.135265620915
 C3 0.394373 0.986858 0.67314  -0.140971379085
 C3 0.894369 0.98686 0.67313  -0.140971379085
 C3 0.34928 0.919389 0.76768  -0.140971379085
 C3 0.849275 0.919398 0.76767  -0.140971379085
 C3 0.271322 0.875 0.78579  -0.140971379085
 C3 0.771316 0.87501 0.78578  -0.140971379085
 C4 0.240753 0.899185 0.7093  0.0990245098039
 C4 0.740749 0.899193 0.70934  0.0990245098039
 C5 0.043475 0.235847 0.27613  0.0431489542484
 C5 0.543485 0.235862 0.27614  0.0431489542484
 C3 0.106427 0.288537 0.2872  -0.140971379085
 C3 0.606445 0.288541 0.28725  -0.140971379085
 C4 0.16634 0.361179 0.20690  0.0990245098039
 C4 0.666351 0.361187 0.20690  0.0990245098039
 C4 0.11025 0.329335 0.10484  0.0990245098039
 C4 0.610254 0.329343 0.1048  0.0990245098039
 C3 0.047457 0.257565 0.18151  -0.140971379085
 C3 0.547465 0.257567 0.18153  -0.140971379085
 C1 0.150202 0.499394 0.42915  0.287213120915
 C1 0.650204 0.499395 0.42913  0.287213120915
 C1 0.15596 0.358694 0.47667  0.287213120915
 C1 0.655962 0.358697 0.47665  0.287213120915
 C2 0.159743 0.600715 0.39197  0.135265620915
 C2 0.659745 0.600716 0.39195  0.135265620915
 C3 0.230021 0.674787 0.33897  -0.140971379085
 C3 0.730021 0.674789 0.33895  -0.140971379085
 C3 0.2317 0.769432 0.31176  -0.140971379085
 C3 0.731703 0.769432 0.31175  -0.140971379085
 C3 0.162712 0.7871 0.33820  -0.140971379085
 C3 0.662718 0.787095 0.33821  -0.140971379085
 C4 0.094327 0.710152 0.39068  0.0990245098039
 C4 0.594333 0.710148 0.39070  0.0990245098039
 C5 0.182182 0.276589 0.48826  0.0431489542484
 C5 0.682187 0.276591 0.48824  0.0431489542484
 C3 0.250287 0.287974 0.42409  -0.140971379085
 C3 0.750292 0.287975 0.42408  -0.140971379085
 C4 0.26987 0.207492 0.43159  0.0990245098039
 C4 0.769873 0.207491 0.43158  0.0990245098039
 C4 0.163496 0.104702 0.56613  0.0990245098039
 C4 0.663494 0.104704 0.56611  0.0990245098039
 C3 0.139228 0.181503 0.56148  -0.140971379085
 C3 0.639228 0.181506 0.56146  -0.140971379085
 C1 0.364896 0.429212 0.07259  0.287213120915
 C1 0.864908 0.429221 0.07259  0.287213120915
 C1 0.393884 0.476655 0.16551  0.287213120915
 C1 0.893897 0.476665 0.16551  0.287213120915
 C2 0.35635 0.392235 0.00861  0.135265620915
 C2 0.856353 0.392229 0.00862  0.135265620915
 C3 0.400861 0.339917 0.98774  -0.140971379085
 C3 0.900853 0.339893 0.98777  -0.140971379085
 C3 0.389369 0.312842 0.92044  -0.140971379085
 C3 0.889349 0.312799 0.92048  -0.140971379085
 C3 0.333233 0.338666 0.87633  -0.140971379085
 C3 0.833209 0.338617 0.87638  -0.140971379085
 C4 0.290392 0.390535 0.90056  0.0990245098039
 C4 0.790381 0.390506 0.90059  0.0990245098039
 C5 0.425875 0.488322 0.23585  0.0431489542484
 C5 0.925892 0.488338 0.23583  0.0431489542484
 C3 0.46232 0.424167 0.28890  -0.140971379085
 C3 0.962348 0.424192 0.28888  -0.140971379085
 C4 0.485768 0.4317 0.3616  0.0990245098039
 C4 0.9858 0.431726 0.36161  0.0990245098039
 C4 0.445881 0.566245 0.32914  0.0990245098039
 C4 0.945883 0.566248 0.3291  0.0990245098039
 C3 0.419127 0.561526 0.2572  -0.140971379085
 C3 0.919125 0.561525 0.25724  -0.140971379085
 N1 0.141096 0.925919 0.56195  -0.0274577124183
 N1 0.641087 0.925921 0.56194  -0.0274577124183
 N2 0.092576 0.866492 0.65315  -0.392291045752
 N2 0.592571 0.866489 0.65314  -0.392291045752
 N3 0.025324 0.870933 0.5481  -0.497517712418
 N3 0.525315 0.870938 0.54815  -0.497517712418
 N4 0.216283 0.035541 0.38293  -0.151527712418
 N4 0.716274 0.035539 0.38292  -0.151527712418
 N4 0.330739 0.616108 0.8848  -0.151527712418
 N4 0.830754 0.61611 0.8848  -0.151527712418
 N1 0.42178 0.561642 0.5117  -0.0274577124183
 N1 0.921783 0.561639 0.51174  -0.0274577124183
 N2 0.418465 0.653017 0.47959  -0.392291045752
 N2 0.918464 0.653013 0.47960  -0.392291045752
 N3 0.29935 0.547238 0.58104  -0.497517712418
 N3 0.799352 0.547229 0.5810  -0.497517712418
 N4 0.408372 0.382292 0.58201  -0.151527712418
 N4 0.908379 0.382293 0.58200  -0.151527712418
 N4 0.272856 0.884712 0.49910  -0.151527712418
 N4 0.77285 0.884704 0.49910  -0.151527712418
 N1 0.178067 0.512031 0.92580  -0.0274577124183
 N1 0.678073 0.512026 0.92581  -0.0274577124183
 N2 0.159058 0.479963 0.86668  -0.392291045752
 N2 0.659073 0.479972 0.86668  -0.392291045752
 N3 0.089734 0.580833 0.87043  -0.497517712418
 N3 0.589739 0.580827 0.87044  -0.497517712418
 N4 0.199031 0.582217 0.03443  -0.151527712418
 N4 0.69904 0.58222 0.0344  -0.151527712418
 N4 0.022619 0.499014 0.61588  -0.151527712418
 N4 0.522635 0.499015 0.61588  -0.151527712418
 N1 0.358932 0.074082 0.43801  -0.0274577124183
 N1 0.858929 0.074058 0.43800  -0.0274577124183
 N2 0.407451 0.133502 0.34681  -0.392291045752
 N2 0.907445 0.133498 0.34680  -0.392291045752
 N3 0.474711 0.129032 0.4518  -0.497517712418
 N3 0.974705 0.129024 0.45179  -0.497517712418
 N4 0.283744 0.964453 0.61703  -0.151527712418
 N4 0.783738 0.964453 0.61702  -0.151527712418
 N4 0.169275 0.383858 0.11513  -0.151527712418
 N4 0.669287 0.383865 0.11513  -0.151527712418
 N1 0.078247 0.43837 0.48822  -0.0274577124183
 N1 0.578253 0.43837 0.48822  -0.0274577124183
 N2 0.081564 0.346996 0.52036  -0.392291045752
 N2 0.581568 0.346995 0.52034  -0.392291045752
 N3 0.200684 0.452773 0.41893  -0.497517712418
 N3 0.700684 0.452775 0.41890  -0.497517712418
 N4 0.091654 0.617719 0.41793  -0.151527712418
 N4 0.591657 0.617717 0.41793  -0.151527712418
 N4 0.227165 0.115293 0.50085  -0.151527712418
 N4 0.727166 0.115292 0.50084  -0.151527712418
 N1 0.321959 0.487958 0.07414  -0.0274577124183
 N1 0.82197 0.487966 0.07414  -0.0274577124183
 N2 0.34095 0.520004 0.13328  -0.392291045752
 N2 0.840964 0.520017 0.13328  -0.392291045752
 N3 0.410312 0.419185 0.12949  -0.497517712418
 N3 0.910324 0.419193 0.1294  -0.497517712418
 N4 0.300987 0.417755 0.96553  -0.151527712418
 N4 0.800993 0.417751 0.96553  -0.151527712418
 N4 0.477399 0.500993 0.38406  -0.151527712418
 N4 0.977404 0.500997 0.3840  -0.151527712418
