#======================================================================

# CRYSTAL DATA

#----------------------------------------------------------------------

data_VESTA_phase_1


_pd_phase_name                         MOF
_cell_length_a                         13.18800
_cell_length_b                         13.20000
_cell_length_c                         23.33900
_cell_angle_alpha                      90.00700
_cell_angle_beta                       89.99900
_cell_angle_gamma                      90.45000
_symmetry_space_group_name_H-M         "P 1"
_symmetry_Int_Tables_number            1

loop_
_symmetry_equiv_pos_as_xyz
   "x, y, z"

loop_
   _atom_site_label
   _atom_site_fract_x
   _atom_site_fract_y
   _atom_site_fract_z
 _atom_site_charge
 Zn1 0.253643 0.364594 0.75037  0.906894705882
 Zn1 0.275785 0.347292 0.87463  0.906894705882
 Zn1 0.746381 0.635381 0.25038  0.906894705882
 Zn1 0.724233 0.652702 0.37464  0.906894705882
 H1 0.60359 0.380956 0.88919  0.114550777311
 H1 0.752302 0.333487 0.69448  0.114550777311
 H1 0.564883 0.350487 0.70781  0.114550777311
 H1 0.7783 0.378523 0.93161  0.114550777311
 H1 0.965128 0.362618 0.91828  0.114550777311
 H1 0.925719 0.330881 0.73666  0.114550777311
 H1 0.279399 0.021739 0.88688  0.114550777311
 H1 0.258759 0.861176 0.6937  0.114550777311
 H1 0.272469 0.048993 0.70381  0.114550777311
 H1 0.268338 0.850517 0.93247  0.114550777311
 H1 0.25426 0.662926 0.92247  0.114550777311
 H1 0.245916 0.690273 0.73927  0.114550777311
 H1 0.194232 0.193113 0.94483  0.114550777311
 H1 0.173216 0.142483 0.04782  0.114550777311
 H1 0.246261 0.254123 0.12403  0.114550777311
 H1 0.386605 0.48495 0.9403  0.114550777311
 H1 0.462889 0.600181 0.0130  0.114550777311
 H1 0.436996 0.566796 0.11729  0.114550777311
 H1 0.058002 0.438062 0.23964  0.114550777311
 H1 0.02532 0.40197 0.34391  0.114550777311
 H1 0.553969 0.337562 0.27804  0.114550777311
 H1 0.522957 0.308422 0.38253  0.114550777311
 H1 0.153366 0.156193 0.49475  0.114550777311
 H1 0.114655 0.110527 0.59624  0.114550777311
 H1 0.166701 0.225276 0.67555  0.114550777311
 H1 0.319334 0.482149 0.50641  0.114550777311
 H1 0.373463 0.589799 0.58984  0.114550777311
 H1 0.336186 0.530237 0.68856  0.114550777311
 H1 0.396426 0.619047 0.389  0.114550777311
 H1 0.247726 0.666478 0.19449  0.114550777311
 H1 0.435145 0.649483 0.20782  0.114550777311
 H1 0.221713 0.621486 0.43162  0.114550777311
 H1 0.034886 0.637386 0.41829  0.114550777311
 H1 0.074306 0.669087 0.23667  0.114550777311
 H1 0.720613 0.978283 0.38689  0.114550777311
 H1 0.741271 0.138744 0.19371  0.114550777311
 H1 0.727559 0.950933 0.2038  0.114550777311
 H1 0.73167 0.149529 0.43248  0.114550777311
 H1 0.745752 0.337114 0.42248  0.114550777311
 H1 0.75411 0.309672 0.23927  0.114550777311
 H1 0.805737 0.806905 0.44487  0.114550777311
 H1 0.826753 0.857547 0.54784  0.114550777311
 H1 0.753734 0.74589 0.62404  0.114550777311
 H1 0.613408 0.515037 0.44037  0.114550777311
 H1 0.537156 0.3998 0.51305  0.114550777311
 H1 0.563053 0.433185 0.61726  0.114550777311
 H1 0.942019 0.561917 0.73963  0.114550777311
 H1 0.974702 0.598003 0.84390  0.114550777311
 H1 0.44605 0.662403 0.77806  0.114550777311
 H1 0.477062 0.691526 0.88255  0.114550777311
 H1 0.846669 0.843755 0.99478  0.114550777311
 H1 0.885406 0.889416 0.09629  0.114550777311
 H1 0.833365 0.774664 0.17558  0.114550777311
 H1 0.680716 0.517803 0.00641  0.114550777311
 H1 0.626594 0.410146 0.08983  0.114550777311
 H1 0.663863 0.469713 0.18856  0.114550777311
 C1 0.461712 0.373859 0.80636  0.681807205882
 C2 0.574564 0.36761 0.79946  -0.0568102941176
 C3 0.637477 0.371753 0.84690  -0.0873468325792
 C2 0.743757 0.362701 0.84115  -0.0568102941176
 C2 0.786036 0.347957 0.78500  -0.0568102941176
 C3 0.719761 0.344118 0.73703  -0.0873468325792
 C3 0.616731 0.35412 0.74406  -0.0873468325792
 C3 0.810401 0.367399 0.88896  -0.0873468325792
 C3 0.913516 0.35818 0.88195  -0.0873468325792
 C2 0.955385 0.344784 0.82643  -0.0568102941176
 C3 0.89229 0.339804 0.77907  -0.0873468325792
 C1 0.247185 0.552866 0.82454  0.681807205882
 C1 0.280024 0.15908 0.80178  0.681807205882
 C2 0.275452 0.045776 0.79637  -0.0568102941176
 C3 0.274197 0.985628 0.84496  -0.0873468325792
 C2 0.26602 0.878943 0.84096  -0.0568102941176
 C2 0.259375 0.833015 0.78521  -0.0568102941176
 C3 0.262443 0.896398 0.73598  -0.0873468325792
 C3 0.270102 0.999998 0.74133  -0.0873468325792
 C3 0.263659 0.815502 0.8901  -0.0873468325792
 C3 0.255974 0.711877 0.88493  -0.0873468325792
 C2 0.249937 0.666202 0.82987  -0.0568102941176
 C3 0.250805 0.726341 0.78122  -0.0873468325792
 C1 0.068213 0.339261 0.81916  0.681807205882
 C4 0.226603 0.239066 0.97918  0.194699705882
 C3 0.214692 0.211535 0.03703  -0.0873468325792
 C3 0.255145 0.273235 0.07889  -0.0873468325792
 C2 0.308706 0.362151 0.0631  -0.0568102941176
 C5 0.320833 0.383761 0.  0.184982205882
 C3 0.377497 0.470036 0.98592  -0.0873468325792
 C3 0.419043 0.533978 0.0265  -0.0873468325792
 C3 0.404903 0.515199 0.08560  -0.0873468325792
 C5 0.350871 0.431405 0.10347  0.184982205882
 C6 0.418363 0.383695 0.19740  0.442872205882
 C6 0.234778 0.431256 0.18464  0.442872205882
 C2 0.217089 0.408114 0.24569  -0.0568102941176
 C3 0.119558 0.415788 0.26795  -0.0873468325792
 C3 0.101376 0.396194 0.32609  -0.0873468325792
 C2 0.180797 0.370158 0.36228  -0.0568102941176
 C2 0.280878 0.362243 0.34074  -0.0568102941176
 C2 0.299067 0.380439 0.28140  -0.0568102941176
 C2 0.398613 0.370286 0.2594  -0.0568102941176
 C3 0.478058 0.345024 0.29571  -0.0873468325792
 C3 0.460588 0.328635 0.35428  -0.0873468325792
 C2 0.363208 0.33626 0.37677  -0.0568102941176
 C6 0.345844 0.315336 0.438  0.442872205882
 C6 0.159466 0.350147 0.4234  0.442872205882
 C5 0.22415 0.296912 0.51667  0.184982205882
 C3 0.17546 0.207067 0.52940  -0.0873468325792
 C3 0.153762 0.181654 0.58686  -0.0873468325792
 C3 0.181857 0.245175 0.63109  -0.0873468325792
 C5 0.233121 0.337261 0.61897  0.184982205882
 C2 0.25367 0.365256 0.56072  -0.0568102941176
 C3 0.303346 0.458839 0.55028  -0.0873468325792
 C3 0.332556 0.51867 0.59572  -0.0873468325792
 C4 0.311955 0.48539 0.65185  0.194699705882
 C1 0.538309 0.626125 0.30637  0.681807205882
 C2 0.425458 0.632376 0.29947  -0.0568102941176
 C3 0.362542 0.628241 0.34691  -0.0873468325792
 C2 0.256262 0.637291 0.34116  -0.0568102941176
 C2 0.213987 0.652024 0.28501  -0.0568102941176
 C3 0.280264 0.655855 0.23704  -0.0873468325792
 C3 0.383294 0.645857 0.24407  -0.0873468325792
 C3 0.189615 0.632601 0.38897  -0.0873468325792
 C3 0.0865 0.641818 0.38196  -0.0873468325792
 C2 0.044635 0.655203 0.32644  -0.0568102941176
 C3 0.107732 0.660173 0.27908  -0.0873468325792
 C1 0.752835 0.447122 0.32454  0.681807205882
 C1 0.719996 0.840898 0.30179  0.681807205882
 C2 0.724567 0.9542 0.29638  -0.0568102941176
 C3 0.725818 0.014372 0.34497  -0.0873468325792
 C2 0.733996 0.121055 0.34097  -0.0568102941176
 C2 0.740647 0.166954 0.28522  -0.0568102941176
 C3 0.737583 0.103545 0.23599  -0.0873468325792
 C3 0.729923 0.999948 0.24134  -0.0873468325792
 C3 0.736354 0.184521 0.39018  -0.0873468325792
 C3 0.744041 0.288143 0.38493  -0.0873468325792
 C2 0.750082 0.33379 0.32987  -0.0568102941176
 C3 0.749218 0.273625 0.28123  -0.0873468325792
 C1 0.931807 0.660725 0.31917  0.681807205882
 C4 0.773374 0.760945 0.47921  0.194699705882
 C3 0.78529 0.788486 0.53705  -0.0873468325792
 C3 0.744851 0.726777 0.57890  -0.0873468325792
 C2 0.691306 0.637853 0.56312  -0.0568102941176
 C5 0.67917 0.616234 0.5032  0.184982205882
 C3 0.622519 0.529951 0.48592  -0.0873468325792
 C3 0.580993 0.46601 0.5265  -0.0873468325792
 C3 0.595136 0.484788 0.58558  -0.0873468325792
 C5 0.649156 0.56859 0.60346  0.184982205882
 C6 0.581661 0.616292 0.69740  0.442872205882
 C6 0.765246 0.568731 0.68464  0.442872205882
 C2 0.782932 0.591865 0.74568  -0.0568102941176
 C3 0.880464 0.584189 0.7679  -0.0873468325792
 C3 0.898646 0.603779 0.82609  -0.0873468325792
 C2 0.819225 0.62981 0.86228  -0.0568102941176
 C2 0.719142 0.637724 0.84074  -0.0568102941176
 C2 0.700953 0.619535 0.78140  -0.0568102941176
 C2 0.601407 0.629689 0.75941  -0.0568102941176
 C3 0.521962 0.654941 0.79572  -0.0873468325792
 C3 0.539433 0.671321 0.854  -0.0873468325792
 C2 0.636813 0.6637 0.87678  -0.0568102941176
 C6 0.654181 0.684624 0.93831  0.442872205882
 C6 0.840558 0.649819 0.92344  0.442872205882
 C5 0.775891 0.703045 0.01669  0.184982205882
 C3 0.824586 0.792887 0.0294  -0.0873468325792
 C3 0.846293 0.818293 0.08690  -0.0873468325792
 C3 0.818199 0.75477 0.13112  -0.0873468325792
 C5 0.766929 0.662688 0.11899  0.184982205882
 C2 0.746376 0.634696 0.06074  -0.0568102941176
 C3 0.696703 0.541112 0.05029  -0.0873468325792
 C3 0.667497 0.481277 0.09571  -0.0873468325792
 C4 0.688094 0.514559 0.15185  0.194699705882
 N1 0.277704 0.3214 0.96262  -0.294680294118
 N2 0.334538 0.413673 0.16379  -0.171535294118
 N2 0.244406 0.322197 0.45755  -0.171535294118
 N1 0.263583 0.398817 0.66342  -0.294680294118
 N1 0.722289 0.678602 0.46263  -0.294680294118
 N2 0.665488 0.586319 0.66378  -0.171535294118
 N2 0.755619 0.677756 0.95756  -0.171535294118
 N1 0.736466 0.601132 0.16343  -0.294680294118
 O1 0.427072 0.368889 0.85728  -0.583472794118
 O1 0.409801 0.38265 0.76071  -0.583472794118
 O1 0.257825 0.502662 0.87068  -0.583472794118
 O1 0.236156 0.515823 0.77453  -0.583472794118
 O1 0.287649 0.195735 0.85208  -0.583472794118
 O1 0.27494 0.209651 0.75533  -0.583472794118
 O1 0.120282 0.333313 0.86492  -0.583472794118
 O1 0.102471 0.34214 0.76806  -0.583472794118
 O2 0.168717 0.462166 0.15229  -0.467265294118
 O2 0.50144 0.368962 0.1752  -0.467265294118
 O2 0.075063 0.356009 0.44488  -0.467265294118
 O2 0.413885 0.29313 0.47191  -0.467265294118
 O1 0.572948 0.631099 0.35729  -0.583472794118
 O1 0.590222 0.617332 0.26072  -0.583472794118
 O1 0.742196 0.497338 0.37069  -0.583472794118
 O1 0.763863 0.484154 0.27454  -0.583472794118
 O1 0.712369 0.804257 0.35209  -0.583472794118
 O1 0.725083 0.790316 0.2553  -0.583472794118
 O1 0.879735 0.666675 0.36493  -0.583472794118
 O1 0.897552 0.657841 0.26807  -0.583472794118
 O2 0.831308 0.537822 0.65228  -0.467265294118
 O2 0.498587 0.631028 0.67522  -0.467265294118
 O2 0.924965 0.643967 0.94488  -0.467265294118
 O2 0.586144 0.706838 0.97193  -0.467265294118
