#======================================================================

# CRYSTAL DATA

#----------------------------------------------------------------------

data_VESTA_phase_1


_pd_phase_name                         MOF
_cell_length_a                         23.72200
_cell_length_b                         13.82600
_cell_length_c                         21.39200
_cell_angle_alpha                      89.95500
_cell_angle_beta                       89.99700
_cell_angle_gamma                      90.00300
_symmetry_space_group_name_H-M         "P 1"
_symmetry_Int_Tables_number            1

loop_
_symmetry_equiv_pos_as_xyz
   "x, y, z"

loop_
   _atom_site_label
   _atom_site_fract_x
   _atom_site_fract_y
   _atom_site_fract_z
 _atom_site_charge
 Cd1 0.999974 0.391179 0.93769  0.972114527027
 Cd1 0.499944 0.391191 0.93767  0.972114527027
 Cd1 0.0 0.608819 0.06227  0.972114527027
 Cd1 0.499993 0.608775 0.06228  0.972114527027
 Cd1 0.000159 0.109619 0.43781  0.972114527027
 Cd1 0.500211 0.109548 0.43780  0.972114527027
 Cd1 0.999818 0.89034 0.56217  0.972114527027
 Cd1 0.499754 0.890385 0.56217  0.972114527027
 H1 0.103736 0.534364 0.90030  0.10546723536
 H1 0.603753 0.535475 0.90002  0.10546723536
 H1 0.207994 0.540561 0.89783  0.10546723536
 H1 0.707986 0.541602 0.89743  0.10546723536
 H1 0.20792 0.256312 0.98346  0.10546723536
 H1 0.707927 0.257093 0.98271  0.10546723536
 H1 0.103544 0.264026 0.98285  0.10546723536
 H1 0.603552 0.264831 0.98217  0.10546723536
 H1 0.10371 0.469582 0.10504  0.10546723536
 H1 0.603752 0.469451 0.10535  0.10546723536
 H1 0.207966 0.464364 0.10889  0.10546723536
 H1 0.707993 0.464161 0.10905  0.10546723536
 H1 0.208184 0.738211 0.01010  0.10546723536
 H1 0.708171 0.737726 0.00993  0.10546723536
 H1 0.103757 0.731633 0.01194  0.10546723536
 H1 0.603742 0.730998 0.0116  0.10546723536
 H1 0.396532 0.965334 0.40001  0.10546723536
 H1 0.896584 0.966277 0.39948  0.10546723536
 H1 0.292288 0.958856 0.39753  0.10546723536
 H1 0.792314 0.959831 0.39683  0.10546723536
 H1 0.292108 0.243117 0.48287  0.10546723536
 H1 0.792065 0.242754 0.48401  0.10546723536
 H1 0.396431 0.235773 0.48221  0.10546723536
 H1 0.896411 0.235431 0.48337  0.10546723536
 H1 0.396249 0.031421 0.60318  0.10546723536
 H1 0.896264 0.031568 0.6034  0.10546723536
 H1 0.291975 0.037281 0.60671  0.10546723536
 H1 0.792016 0.037445 0.60701  0.10546723536
 H1 0.291564 0.760067 0.51217  0.10546723536
 H1 0.791561 0.760436 0.5122  0.10546723536
 H1 0.39594 0.766981 0.51326  0.10546723536
 H1 0.895919 0.767114 0.51352  0.10546723536
 H1 0.396294 0.46421 0.09796  0.10546723536
 H1 0.896353 0.464485 0.09861  0.10546723536
 H1 0.291986 0.457567 0.10007  0.10546723536
 H1 0.792069 0.457801 0.10083  0.10546723536
 H1 0.291923 0.745241 0.01939  0.10546723536
 H1 0.791887 0.7443 0.01841  0.10546723536
 H1 0.396309 0.737661 0.01984  0.10546723536
 H1 0.896282 0.736705 0.01870  0.10546723536
 H1 0.396307 0.530598 0.89597  0.10546723536
 H1 0.896364 0.532037 0.89628  0.10546723536
 H1 0.292051 0.536346 0.89257  0.10546723536
 H1 0.792131 0.537836 0.89276  0.10546723536
 H1 0.291765 0.260194 0.98867  0.10546723536
 H1 0.791726 0.260512 0.9874  0.10546723536
 H1 0.396149 0.266823 0.98699  0.10546723536
 H1 0.896114 0.267202 0.98602  0.10546723536
 H1 0.103388 0.033648 0.60054  0.10546723536
 H1 0.603432 0.03454 0.60003  0.10546723536
 H1 0.207658 0.040078 0.6032  0.10546723536
 H1 0.707675 0.041019 0.60253  0.10546723536
 H1 0.207904 0.75721 0.51595  0.10546723536
 H1 0.707867 0.756853 0.51706  0.10546723536
 H1 0.103557 0.764538 0.51659  0.10546723536
 H1 0.603545 0.764184 0.5177  0.10546723536
 H1 0.103702 0.968402 0.39648  0.10546723536
 H1 0.60372 0.968549 0.39678  0.10546723536
 H1 0.20795 0.962523 0.39294  0.10546723536
 H1 0.707995 0.962696 0.39324  0.10546723536
 H1 0.208415 0.239467 0.48780  0.10546723536
 H1 0.708407 0.239825 0.48788  0.10546723536
 H1 0.104056 0.232806 0.48649  0.10546723536
 H1 0.60403 0.232918 0.48678  0.10546723536
 H1 0.000194 0.153795 0.10263  0.10546723536
 H1 0.501975 0.153851 0.10267  0.10546723536
 H1 0.0 0.088572 0.21252  0.10546723536
 H1 0.501894 0.088681 0.21257  0.10546723536
 H1 0.999863 0.377962 0.28419  0.10546723536
 H1 0.498304 0.378047 0.2841  0.10546723536
 H1 0.999833 0.444092 0.17555  0.10546723536
 H1 0.498485 0.444128 0.17552  0.10546723536
 H1 0.999791 0.846172 0.89734  0.10546723536
 H1 0.499996 0.846129 0.89730  0.10546723536
 H1 0.999849 0.911381 0.7874  0.10546723536
 H1 0.499795 0.911283 0.78740  0.10546723536
 H1 0.0 0.621982 0.71579  0.10546723536
 H1 0.500312 0.621853 0.71579  0.10546723536
 H1 0.0 0.555866 0.82443  0.10546723536
 H1 0.500068 0.555792 0.82444  0.10546723536
 H1 0.999862 0.345451 0.60299  0.10546723536
 H1 0.500022 0.345414 0.60299  0.10546723536
 H1 0.999897 0.410945 0.71276  0.10546723536
 H1 0.499802 0.410881 0.71277  0.10546723536
 H1 2.2e-05 0.121771 0.78503  0.10546723536
 H1 0.500267 0.121691 0.7850  0.10546723536
 H1 0.0 0.05533 0.67648  0.10546723536
 H1 0.500022 0.055277 0.67646  0.10546723536
 H1 0.000127 0.65448 0.39698  0.10546723536
 H1 0.500196 0.654495 0.39696  0.10546723536
 H1 0.0 0.588993 0.28721  0.10546723536
 H1 0.500432 0.589042 0.28719  0.10546723536
 H1 0.999965 0.878172 0.21495  0.10546723536
 H1 0.499489 0.878238 0.21496  0.10546723536
 H1 0.999959 0.944607 0.32350  0.10546723536
 H1 0.499763 0.944643 0.32352  0.10546723536
 C1 0.128903 0.474544 0.91835  0.177312027027
 C1 0.628901 0.475567 0.91798  0.177312027027
 C2 0.187446 0.476891 0.91716  -0.138621722973
 C2 0.687445 0.477886 0.91671  -0.138621722973
 C3 0.218643 0.398528 0.94076  -0.012017972973
 C3 0.71865 0.399449 0.94020  -0.012017972973
 C2 0.187409 0.320435 0.96469  -0.138621722973
 C2 0.687416 0.321269 0.96401  -0.138621722973
 C1 0.128858 0.323501 0.9644  0.177312027027
 C1 0.62887 0.324349 0.96384  0.177312027027
 C1 0.128914 0.527571 0.08468  0.177312027027
 C1 0.628934 0.527326 0.08482  0.177312027027
 C2 0.187461 0.525457 0.08629  -0.138621722973
 C2 0.687483 0.525189 0.08638  -0.138621722973
 C3 0.21873 0.601185 0.05942  -0.012017972973
 C3 0.718744 0.600827 0.059  -0.012017972973
 C2 0.187581 0.676686 0.03212  -0.138621722973
 C2 0.687584 0.676234 0.03201  -0.138621722973
 C1 0.129031 0.673918 0.03261  0.177312027027
 C1 0.629038 0.673442 0.03249  0.177312027027
 C1 0.371321 0.025095 0.41801  0.177312027027
 C1 0.871331 0.025736 0.41782  0.177312027027
 C2 0.312769 0.022602 0.41679  -0.138621722973
 C2 0.812782 0.023265 0.41653  -0.138621722973
 C3 0.281487 0.100843 0.44036  -0.012017972973
 C3 0.781487 0.101138 0.44058  -0.012017972973
 C2 0.312666 0.179062 0.46413  -0.138621722973
 C2 0.812639 0.179024 0.46484  -0.138621722973
 C1 0.371212 0.176155 0.4639  0.177312027027
 C1 0.871184 0.176129 0.46466  0.177312027027
 C1 0.370961 0.972965 0.5835  0.177312027027
 C1 0.870993 0.973119 0.58384  0.177312027027
 C2 0.312412 0.975275 0.58515  -0.138621722973
 C2 0.812439 0.975475 0.58539  -0.138621722973
 C3 0.281069 0.898802 0.55936  -0.012017972973
 C3 0.781077 0.899068 0.5595  -0.012017972973
 C2 0.312174 0.822422 0.53310  -0.138621722973
 C2 0.81218 0.822708 0.53325  -0.138621722973
 C1 0.370718 0.825208 0.53335  0.177312027027
 C1 0.87073 0.825408 0.53358  0.177312027027
 C1 0.371068 0.524642 0.08090  0.177312027027
 C1 0.87112 0.524643 0.08116  0.177312027027
 C2 0.312527 0.522105 0.08196  -0.138621722973
 C2 0.812578 0.522067 0.08228  -0.138621722973
 C3 0.281303 0.601262 0.05955  -0.012017972973
 C3 0.781319 0.600915 0.05947  -0.012017972973
 C2 0.31249 0.680383 0.03700  -0.138621722973
 C2 0.812475 0.679703 0.0363  -0.138621722973
 C1 0.371043 0.677407 0.03722  0.177312027027
 C1 0.871028 0.676756 0.03654  0.177312027027
 C1 0.371066 0.472288 0.91588  0.177312027027
 C1 0.871115 0.473491 0.91588  0.177312027027
 C2 0.312521 0.474602 0.91445  -0.138621722973
 C2 0.812569 0.475812 0.91435  -0.138621722973
 C3 0.281224 0.398414 0.94073  -0.012017972973
 C3 0.781235 0.399328 0.94021  -0.012017972973
 C2 0.31236 0.322259 0.96729  -0.138621722973
 C2 0.812343 0.322847 0.96641  -0.138621722973
 C1 0.370911 0.324975 0.96678  0.177312027027
 C1 0.870894 0.325573 0.96604  0.177312027027
 C1 0.12864 0.974198 0.58218  0.177312027027
 C1 0.628646 0.9748 0.58200  0.177312027027
 C2 0.187189 0.976665 0.58348  -0.138621722973
 C2 0.687198 0.977297 0.58323  -0.138621722973
 C3 0.218483 0.898793 0.55943  -0.012017972973
 C3 0.718484 0.899078 0.55964  -0.012017972973
 C2 0.187331 0.820935 0.53513  -0.138621722973
 C2 0.687307 0.820887 0.53582  -0.138621722973
 C1 0.128786 0.823829 0.53531  0.177312027027
 C1 0.628761 0.823787 0.53604  0.177312027027
 C1 0.128975 0.026839 0.41613  0.177312027027
 C1 0.62901 0.026992 0.41638  0.177312027027
 C2 0.187529 0.024471 0.41459  -0.138621722973
 C2 0.687559 0.024677 0.41483  -0.138621722973
 C3 0.218893 0.100871 0.44044  -0.012017972973
 C3 0.718901 0.101138 0.44063  -0.012017972973
 C2 0.187793 0.177206 0.46676  -0.138621722973
 C2 0.687796 0.177486 0.46693  -0.138621722973
 C1 0.129244 0.174521 0.4664  0.177312027027
 C1 0.629252 0.17471 0.4666  0.177312027027
 C4 0.0 0.339893 0.06639  0.647589527027
 C4 0.500171 0.339905 0.06639  0.647589527027
 C3 0.0 0.302552 0.13210  -0.012017972973
 C3 0.500187 0.302595 0.13211  -0.012017972973
 C2 0.0 0.202197 0.14280  -0.138621722973
 C2 0.50119 0.202261 0.14283  -0.138621722973
 C2 0.000106 0.166134 0.20353  -0.138621722973
 C2 0.501132 0.166226 0.20356  -0.138621722973
 C3 0.0 0.229644 0.25470  -0.012017972973
 C3 0.500083 0.229735 0.25473  -0.012017972973
 C2 0.999937 0.329688 0.24395  -0.138621722973
 C2 0.499097 0.32976 0.24395  -0.138621722973
 C2 0.99993 0.36622 0.18322  -0.138621722973
 C2 0.499156 0.366268 0.18321  -0.138621722973
 C4 0.0 0.191126 0.32041  0.647589527027
 C4 0.499974 0.191202 0.3204  0.647589527027
 C4 0.999928 0.660093 0.93359  0.647589527027
 C4 0.499993 0.660056 0.93359  0.647589527027
 C3 0.99992 0.697413 0.86787  -0.012017972973
 C3 0.500029 0.697353 0.8678  -0.012017972973
 C2 0.99986 0.797767 0.85717  -0.138621722973
 C2 0.5 0.797702 0.85714  -0.138621722973
 C2 0.999875 0.833821 0.79644  -0.138621722973
 C2 0.49994 0.833728 0.79641  -0.138621722973
 C3 0.999957 0.770306 0.74527  -0.012017972973
 C3 0.500059 0.7702 0.74524  -0.012017972973
 C2 2.7e-05 0.670263 0.75602  -0.138621722973
 C2 0.500186 0.670161 0.75602  -0.138621722973
 C2 1.2e-05 0.633737 0.81676  -0.138621722973
 C2 0.500076 0.633661 0.81676  -0.138621722973
 C4 0.99997 0.808836 0.67956  0.647589527027
 C4 0.500041 0.808745 0.67954  0.647589527027
 C4 0.999964 0.15935 0.56711  0.647589527027
 C4 0.500018 0.159331 0.56709  0.647589527027
 C3 0.999913 0.196782 0.63277  -0.012017972973
 C3 0.500023 0.19674 0.63276  -0.012017972973
 C2 0.99988 0.297161 0.64326  -0.138621722973
 C2 0.500011 0.297116 0.64326  -0.138621722973
 C2 0.999896 0.333368 0.70391  -0.138621722973
 C2 0.499931 0.333308 0.70391  -0.138621722973
 C3 0.999947 0.269983 0.75520  -0.012017972973
 C3 0.500042 0.269914 0.75520  -0.012017972973
 C2 0.999978 0.169913 0.7446  -0.138621722973
 C2 0.500146 0.169846 0.7446  -0.138621722973
 C2 0.999955 0.133222 0.68401  -0.138621722973
 C2 0.500053 0.133168 0.68400  -0.138621722973
 C4 0.999962 0.308857 0.82077  0.647589527027
 C4 0.500028 0.308807 0.82076  0.647589527027
 C4 0.0 0.840594 0.43287  0.647589527027
 C4 0.499962 0.840592 0.43288  0.647589527027
 C3 5.6e-05 0.803153 0.36720  -0.012017972973
 C3 0.499973 0.803176 0.36721  -0.012017972973
 C2 0.000111 0.702774 0.35671  -0.138621722973
 C2 0.500105 0.702801 0.35670  -0.138621722973
 C2 0.0 0.66657 0.29606  -0.138621722973
 C2 0.500202 0.666615 0.29605  -0.138621722973
 C3 5.6e-05 0.729959 0.24477  -0.012017972973
 C3 0.499952 0.730014 0.24476  -0.012017972973
 C2 0.999996 0.830028 0.25530  -0.138621722973
 C2 0.499721 0.83008 0.25531  -0.138621722973
 C2 0.0 0.866715 0.3159  -0.138621722973
 C2 0.499808 0.866752 0.31598  -0.138621722973
 C4 3.3e-05 0.691121 0.17919  0.647589527027
 C4 0.499964 0.691163 0.17919  0.647589527027
 N1 0.099774 0.399414 0.9418  -0.307865472973
 N1 0.599774 0.400373 0.94140  -0.307865472973
 N1 0.099865 0.600386 0.05819  -0.307865472973
 N1 0.599876 0.599984 0.05817  -0.307865472973
 N1 0.400389 0.100327 0.44141  -0.307865472973
 N1 0.900368 0.100636 0.44171  -0.307865472973
 N1 0.39995 0.899402 0.55794  -0.307865472973
 N1 0.899982 0.899541 0.55822  -0.307865472973
 N1 0.40016 0.60071 0.05863  -0.307865472973
 N1 0.90018 0.600373 0.05836  -0.307865472973
 N1 0.400096 0.398926 0.94175  -0.307865472973
 N1 0.900116 0.399839 0.94145  -0.307865472973
 N1 0.099604 0.899309 0.55828  -0.307865472973
 N1 0.599581 0.89959 0.55857  -0.307865472973
 N1 0.099989 0.100405 0.44177  -0.307865472973
 N1 0.600021 0.10053 0.4420  -0.307865472973
 O1 0.999967 0.278915 0.02167  -0.606688806306
 O1 0.50118 0.278938 0.02168  -0.606688806306
 O1 0.999967 0.431259 0.05594  -0.606688806306
 O1 0.498859 0.431242 0.05593  -0.606688806306
 O1 0.0 0.098926 0.32789  -0.606688806306
 O1 0.501274 0.099026 0.32790  -0.606688806306
 O2 0.999992 0.249933 0.36591  -0.649305472973
 O2 0.498732 0.249963 0.36593  -0.649305472973
 O1 0.999982 0.721083 0.97829  -0.606688806306
 O1 0.501114 0.721036 0.97828  -0.606688806306
 O1 6e-06 0.568728 0.9440  -0.606688806306
 O1 0.498895 0.568712 0.94406  -0.606688806306
 O1 0.999916 0.901035 0.67210  -0.606688806306
 O1 0.498765 0.900922 0.67209  -0.606688806306
 O2 6e-06 0.750039 0.63406  -0.649305472973
 O2 0.501232 0.749998 0.63403  -0.649305472973
 O1 2.8e-05 0.220514 0.52239  -0.606688806306
 O1 0.501111 0.220478 0.52238  -0.606688806306
 O1 0.999997 0.068033 0.55680  -0.606688806306
 O1 0.498886 0.068035 0.55677  -0.606688806306
 O1 0.999937 0.401159 0.82779  -0.606688806306
 O1 0.498802 0.401089 0.82776  -0.606688806306
 O2 2.9e-05 0.250408 0.86652  -0.649305472973
 O2 0.501225 0.250404 0.8665  -0.649305472973
 O1 0.999944 0.779439 0.47759  -0.606688806306
 O1 0.498877 0.779456 0.47759  -0.606688806306
 O1 0.999973 0.93191 0.44318  -0.606688806306
 O1 0.501091 0.931889 0.44320  -0.606688806306
 O1 0.0 0.59882 0.17213  -0.606688806306
 O1 0.501265 0.598889 0.17214  -0.606688806306
 O2 0.999935 0.749604 0.13346  -0.649305472973
 O2 0.498706 0.749606 0.13346  -0.649305472973
