#======================================================================

# CRYSTAL DATA

#----------------------------------------------------------------------

data_VESTA_phase_1


_pd_phase_name                         MOF
_cell_length_a                         15.58300
_cell_length_b                         15.62700
_cell_length_c                         15.67200
_cell_angle_alpha                      68.74700
_cell_angle_beta                       74.06900
_cell_angle_gamma                      111.03400
_symmetry_space_group_name_H-M         "P 1"
_symmetry_Int_Tables_number            1

loop_
_symmetry_equiv_pos_as_xyz
   "x, y, z"

loop_
   _atom_site_label
   _atom_site_fract_x
   _atom_site_fract_y
   _atom_site_fract_z
 _atom_site_charge
 Cu1 0.561836 0.808726 0.10256  0.130157109375
 Cu2 0.243905 0.936369 0.06383  0.296309609375
 Cu1 0.589277 0.691353 0.24811  0.130157109375
 Cu2 0.501321 0.56561 0.69039  0.296309609375
 Cu1 0.251638 0.164883 0.93712  0.130157109375
 Cu2 0.809132 0.811393 0.2564  0.296309609375
 Cu1 0.396442 0.336898 0.90998  0.130157109375
 Cu2 0.436442 0.692923 0.99779  0.296309609375
 Cu1 0.438168 0.191298 0.89744  0.130157109375
 Cu2 0.756106 0.063662 0.9361  0.296309609375
 Cu1 0.410735 0.308675 0.75189  0.130157109375
 Cu2 0.498689 0.434413 0.3096  0.296309609375
 Cu1 0.748368 0.835143 0.06287  0.130157109375
 Cu2 0.19088 0.188636 0.74356  0.296309609375
 Cu1 0.603554 0.663126 0.09002  0.130157109375
 Cu2 0.56357 0.307107 0.  0.296309609375
 H1 0.273479 0.713657 0.96774  0.139031067708
 H1 0.281887 0.840593 0.91268  0.139031067708
 H1 0.180334 0.735982 0.0377  0.139031067708
 H1 0.496208 0.955605 0.16062  0.139031067708
 H1 0.360646 0.898346 0.23646  0.139031067708
 H1 0.429891 0.021046 0.11726  0.139031067708
 H1 0.819764 0.78784 0.44000  0.139031067708
 H1 0.748063 0.661252 0.55799  0.139031067708
 H1 0.727365 0.766554 0.55419  0.139031067708
 H1 0.384362 0.545547 0.45878  0.139031067708
 H1 0.364717 0.601866 0.53765  0.139031067708
 H1 0.362978 0.479521 0.58946  0.139031067708
 H1 0.06195 0.745486 0.22793  0.139031067708
 H1 0.943855 0.697946 0.21853  0.139031067708
 H1 0.946231 0.723228 0.31950  0.139031067708
 H1 0.040646 0.159948 0.00408  0.139031067708
 H1 0.960055 0.09906 0.13884  0.139031067708
 H1 0.90977 0.051208 0.06653  0.139031067708
 H1 0.531866 0.758819 0.6803  0.139031067708
 H1 0.588506 0.805067 0.75142  0.139031067708
 H1 0.462882 0.782724 0.77227  0.139031067708
 H1 0.338723 0.344546 0.11460  0.139031067708
 H1 0.26283 0.404725 0.13257  0.139031067708
 H1 0.382706 0.454051 0.13617  0.139031067708
 H1 0.726534 0.286374 0.  0.139031067708
 H1 0.718126 0.159437 0.08732  0.139031067708
 H1 0.819678 0.264047 0.96227  0.139031067708
 H1 0.5038 0.044423 0.83938  0.139031067708
 H1 0.639361 0.101681 0.76354  0.139031067708
 H1 0.570115 0.978982 0.88274  0.139031067708
 H1 0.180246 0.212186 0.56000  0.139031067708
 H1 0.251947 0.338772 0.44201  0.139031067708
 H1 0.272644 0.233469 0.44582  0.139031067708
 H1 0.615648 0.454482 0.54122  0.139031067708
 H1 0.635295 0.398166 0.46235  0.139031067708
 H1 0.637031 0.520509 0.41054  0.139031067708
 H1 0.938063 0.254544 0.7720  0.139031067708
 H1 0.056156 0.302083 0.7814  0.139031067708
 H1 0.053783 0.276804 0.68051  0.139031067708
 H1 0.959364 0.840081 0.9959  0.139031067708
 H1 0.039954 0.900968 0.8611  0.139031067708
 H1 0.09024 0.948822 0.93347  0.139031067708
 H1 0.468148 0.241207 0.31965  0.139031067708
 H1 0.411508 0.19496 0.24858  0.139031067708
 H1 0.537134 0.217307 0.2277  0.139031067708
 H1 0.661288 0.655485 0.88540  0.139031067708
 H1 0.737181 0.595306 0.86743  0.139031067708
 H1 0.617306 0.545982 0.86383  0.139031067708
 C1 0.401598 0.883965 0.10313  0.413312109375
 C1 0.329583 0.808067 0.03054  0.413312109375
 C2 0.262649 0.772447 0.98460  -0.428619140625
 C2 0.423871 0.94353 0.15693  -0.428619140625
 C1 0.513574 0.617306 0.4818  0.413312109375
 C1 0.662333 0.693795 0.47784  0.413312109375
 C2 0.744083 0.729494 0.50903  -0.428619140625
 C2 0.400065 0.557247 0.51891  -0.428619140625
 C1 0.017574 0.007586 0.0977  0.413312109375
 C1 0.022531 0.863553 0.17040  0.413312109375
 C2 0.992149 0.75133 0.237  -0.428619140625
 C2 0.980038 0.083819 0.07495  -0.428619140625
 C1 0.39646 0.496217 0.98542  0.413312109375
 C1 0.469397 0.640359 0.83714  0.413312109375
 C2 0.515761 0.752973 0.75560  -0.428619140625
 C2 0.342622 0.420547 0.0985  -0.428619140625
 C1 0.598411 0.116063 0.89687  0.413312109375
 C1 0.670428 0.191963 0.9694  0.413312109375
 C2 0.737364 0.227583 0.  -0.428619140625
 C2 0.576136 0.056498 0.84307  -0.428619140625
 C1 0.486437 0.382723 0.51818  0.413312109375
 C1 0.337677 0.306232 0.52217  0.413312109375
 C2 0.255927 0.270531 0.49097  -0.428619140625
 C2 0.599945 0.442784 0.48109  -0.428619140625
 C1 0.982436 0.992443 0.9022  0.413312109375
 C1 0.97748 0.136477 0.8296  0.413312109375
 C2 0.007863 0.2487 0.76221  -0.428619140625
 C2 0.019971 0.91621 0.92505  -0.428619140625
 C1 0.603549 0.503812 0.  0.413312109375
 C1 0.530614 0.359669 0.16286  0.413312109375
 C2 0.484253 0.247055 0.24440  -0.428619140625
 C2 0.657389 0.579484 0.90148  -0.428619140625
 I1 0.413157 0.580516 0.25087  -0.265907890625
 I1 0.670023 0.920129 0.16730  -0.265907890625
 I1 0.332809 0.165134 0.08590  -0.265907890625
 I1 0.248716 0.337811 0.82889  -0.265907890625
 I1 0.586849 0.419511 0.74914  -0.265907890625
 I1 0.329989 0.0799 0.83270  -0.265907890625
 I1 0.6672 0.834895 0.91410  -0.265907890625
 I1 0.751295 0.662221 0.17111  -0.265907890625
 N1 0.446679 0.829522 0.08526  -0.244354140625
 N2 0.328514 0.873443 0.0689  -0.475422890625
 N1 0.399869 0.780289 0.03957  -0.244354140625
 N1 0.5857 0.672 0.38293  -0.244354140625
 N2 0.558598 0.628068 0.54390  -0.475422890625
 N1 0.680779 0.721679 0.38042  -0.244354140625
 N1 0.116805 0.034141 0.05260  -0.244354140625
 N2 0.955844 0.901024 0.17120  -0.475422890625
 N1 0.119902 0.942033 0.09983  -0.244354140625
 N1 0.414128 0.468916 0.91356  -0.244354140625
 N2 0.431029 0.603274 0.94055  -0.475422890625
 N1 0.460032 0.561109 0.81877  -0.244354140625
 N1 0.553328 0.170506 0.9147  -0.244354140625
 N2 0.671496 0.126588 0.93106  -0.475422890625
 N1 0.60014 0.219739 0.96043  -0.244354140625
 N1 0.414311 0.32803 0.61707  -0.244354140625
 N2 0.441412 0.371959 0.45610  -0.475422890625
 N1 0.319232 0.278349 0.61958  -0.244354140625
 N1 0.883204 0.965888 0.94740  -0.244354140625
 N2 0.044167 0.099006 0.82881  -0.475422890625
 N1 0.880108 0.057997 0.90017  -0.244354140625
 N1 0.585879 0.531111 0.08644  -0.244354140625
 N2 0.568982 0.396755 0.05945  -0.475422890625
 N1 0.539977 0.438918 0.18123  -0.244354140625
