#======================================================================

# CRYSTAL DATA

#----------------------------------------------------------------------

data_VESTA_phase_1


_pd_phase_name                         MOF
_cell_length_a                         24.16500
_cell_length_b                         15.38100
_cell_length_c                         17.04300
_cell_angle_alpha                      89.90800
_cell_angle_beta                       90.00600
_cell_angle_gamma                      91.72900
_symmetry_space_group_name_H-M         "P 1"
_symmetry_Int_Tables_number            1

loop_
_symmetry_equiv_pos_as_xyz
   "x, y, z"

loop_
   _atom_site_label
   _atom_site_fract_x
   _atom_site_fract_y
   _atom_site_fract_z
 _atom_site_charge
 Cd1 0.156464 0.297762 0.85582  1.18404598039
 Cd1 0.656456 0.297785 0.85583  1.18404598039
 Cd2 0.286567 0.226866 0.80502  1.10350098039
 Cd2 0.786545 0.226856 0.80503  1.10350098039
 Cd1 0.379161 0.0 0.7086  1.18404598039
 Cd1 0.879154 0.0 0.70860  1.18404598039
 Cd1 0.093417 0.20238 0.35552  1.18404598039
 Cd1 0.593424 0.202383 0.3555  1.18404598039
 Cd2 0.463455 0.27347 0.30518  1.10350098039
 Cd2 0.963438 0.273451 0.30519  1.10350098039
 Cd1 0.370636 0.492458 0.20946  1.18404598039
 Cd1 0.870763 0.49233 0.20936  1.18404598039
 Cd1 0.343546 0.702226 0.14418  1.18404598039
 Cd1 0.843535 0.702256 0.14418  1.18404598039
 Cd2 0.213461 0.773144 0.19497  1.10350098039
 Cd2 0.713436 0.773135 0.19498  1.10350098039
 Cd1 0.120844 0.99195 0.29140  1.18404598039
 Cd1 0.620837 0.991922 0.29138  1.18404598039
 Cd1 0.406578 0.797628 0.64449  1.18404598039
 Cd1 0.906585 0.79763 0.64448  1.18404598039
 Cd2 0.036563 0.726552 0.69481  1.10350098039
 Cd2 0.536545 0.726531 0.69481  1.10350098039
 Cd1 0.12926 0.507651 0.79062  1.18404598039
 Cd1 0.629373 0.507522 0.7905  1.18404598039
 H1 0.33677 0.400985 0.82048  0.0889004248366
 H1 0.836812 0.400952 0.82047  0.0889004248366
 H1 0.296525 0.433545 0.95018  0.0889004248366
 H1 0.796555 0.433548 0.95015  0.0889004248366
 H1 0.28643 0.543207 0.9214  0.0889004248366
 H1 0.78645 0.543197 0.92141  0.0889004248366
 H1 0.462102 0.159488 0.69251  0.0889004248366
 H1 0.962079 0.159502 0.69250  0.0889004248366
 H1 0.458046 0.356561 0.71685  0.0889004248366
 H1 0.957884 0.356553 0.71687  0.0889004248366
 H1 0.485663 0.281062 0.78399  0.0889004248366
 H1 0.985543 0.281084 0.7840  0.0889004248366
 H1 0.057903 0.242075 0.6900  0.0889004248366
 H1 0.557934 0.241806 0.6899  0.0889004248366
 H1 0.010736 0.382472 0.58241  0.0889004248366
 H1 0.51088 0.382355 0.58238  0.0889004248366
 H1 0.069522 0.321201 0.56239  0.0889004248366
 H1 0.569604 0.320972 0.56232  0.0889004248366
 H1 0.313415 0.589785 0.77677  0.0889004248366
 H1 0.813439 0.589732 0.7767  0.0889004248366
 H1 0.340241 0.510604 0.71365  0.0889004248366
 H1 0.840299 0.510545 0.71362  0.0889004248366
 H1 0.425116 0.50158 0.79605  0.0889004248366
 H1 0.925167 0.501626 0.79605  0.0889004248366
 H1 0.374634 0.644041 0.89703  0.0889004248366
 H1 0.874617 0.644058 0.89699  0.0889004248366
 H1 0.440977 0.599664 0.90850  0.0889004248366
 H1 0.940974 0.599738 0.90848  0.0889004248366
 H1 0.397618 0.454498 0.93991  0.0889004248366
 H1 0.89765 0.454534 0.93987  0.0889004248366
 H1 0.410554 0.184933 0.56872  0.0889004248366
 H1 0.910561 0.184895 0.56868  0.0889004248366
 H1 0.412526 0.298336 0.58606  0.0889004248366
 H1 0.912469 0.298299 0.58603  0.0889004248366
 H1 0.013441 0.184948 0.5599  0.0889004248366
 H1 0.513418 0.18483 0.5598  0.0889004248366
 H1 0.413043 0.098554 0.31946  0.0889004248366
 H1 0.913048 0.098539 0.31944  0.0889004248366
 H1 0.453152 0.06684 0.44949  0.0889004248366
 H1 0.953137 0.066838 0.44948  0.0889004248366
 H1 0.463654 0.957143 0.42153  0.0889004248366
 H1 0.963654 0.957143 0.42153  0.0889004248366
 H1 0.287953 0.340589 0.192  0.0889004248366
 H1 0.787963 0.340537 0.19211  0.0889004248366
 H1 0.292473 0.143621 0.21738  0.0889004248366
 H1 0.792452 0.143558 0.21734  0.0889004248366
 H1 0.264678 0.219115 0.28415  0.0889004248366
 H1 0.764675 0.219045 0.28413  0.0889004248366
 H1 0.192214 0.257531 0.18996  0.0889004248366
 H1 0.692211 0.25752 0.1899  0.0889004248366
 H1 0.239715 0.117088 0.08306  0.0889004248366
 H1 0.739692 0.117076 0.08304  0.0889004248366
 H1 0.180744 0.17791 0.06272  0.0889004248366
 H1 0.680725 0.177909 0.06271  0.0889004248366
 H1 0.436877 0.909712 0.27699  0.0889004248366
 H1 0.936882 0.909694 0.27700  0.0889004248366
 H1 0.409818 0.988398 0.21336  0.0889004248366
 H1 0.909846 0.988377 0.21335  0.0889004248366
 H1 0.324879 0.997141 0.29573  0.0889004248366
 H1 0.824895 0.997166 0.29570  0.0889004248366
 H1 0.375851 0.855509 0.39753  0.0889004248366
 H1 0.875853 0.855496 0.39748  0.0889004248366
 H1 0.309323 0.899252 0.40866  0.0889004248366
 H1 0.809323 0.899231 0.40862  0.0889004248366
 H1 0.352143 0.044987 0.43913  0.0889004248366
 H1 0.852133 0.044966 0.43910  0.0889004248366
 H1 0.339434 0.31513 0.06837  0.0889004248366
 H1 0.839414 0.315119 0.06837  0.0889004248366
 H1 0.337726 0.201756 0.08623  0.0889004248366
 H1 0.837714 0.201741 0.08619  0.0889004248366
 H1 0.236484 0.314542 0.05979  0.0889004248366
 H1 0.73647 0.314533 0.0597  0.0889004248366
 H1 0.163195 0.599056 0.17953  0.0889004248366
 H1 0.663241 0.599024 0.17952  0.0889004248366
 H1 0.203446 0.566461 0.04984  0.0889004248366
 H1 0.703477 0.566465 0.04981  0.0889004248366
 H1 0.213547 0.456809 0.07858  0.0889004248366
 H1 0.713569 0.4568 0.07852  0.0889004248366
 H1 0.037927 0.840513 0.30749  0.0889004248366
 H1 0.537895 0.840512 0.30748  0.0889004248366
 H1 0.042144 0.643466 0.28312  0.0889004248366
 H1 0.541972 0.643442 0.28314  0.0889004248366
 H1 0.014478 0.718933 0.21599  0.0889004248366
 H1 0.514346 0.718934 0.21600  0.0889004248366
 H1 0.442063 0.758153 0.31002  0.0889004248366
 H1 0.942096 0.75789 0.30991  0.0889004248366
 H1 0.489135 0.617633 0.41762  0.0889004248366
 H1 0.989278 0.617527 0.41758  0.0889004248366
 H1 0.430401 0.678999 0.43767  0.0889004248366
 H1 0.930485 0.678788 0.43758  0.0889004248366
 H1 0.186559 0.410271 0.2232  0.0889004248366
 H1 0.686583 0.410219 0.22322  0.0889004248366
 H1 0.159704 0.48946 0.28638  0.0889004248366
 H1 0.659762 0.489406 0.2863  0.0889004248366
 H1 0.074834 0.498388 0.20395  0.0889004248366
 H1 0.574885 0.498437 0.20395  0.0889004248366
 H1 0.125373 0.355956 0.10300  0.0889004248366
 H1 0.625355 0.355976 0.10296  0.0889004248366
 H1 0.059019 0.400289 0.09152  0.0889004248366
 H1 0.559015 0.400368 0.09150  0.0889004248366
 H1 0.102351 0.545484 0.06012  0.0889004248366
 H1 0.602384 0.545522 0.06007  0.0889004248366
 H1 0.089434 0.815129 0.43132  0.0889004248366
 H1 0.589434 0.815089 0.43127  0.0889004248366
 H1 0.087538 0.701725 0.41397  0.0889004248366
 H1 0.587479 0.701685 0.41394  0.0889004248366
 H1 0.48657 0.815156 0.44011  0.0889004248366
 H1 0.986552 0.81505 0.44005  0.0889004248366
 H1 0.086955 0.901473 0.68056  0.0889004248366
 H1 0.586959 0.901459 0.6805  0.0889004248366
 H1 0.04686 0.933172 0.55052  0.0889004248366
 H1 0.546844 0.933174 0.55051  0.0889004248366
 H1 0.036342 0.042866 0.57847  0.0889004248366
 H1 0.536342 0.042868 0.57848  0.0889004248366
 H1 0.212037 0.659464 0.80789  0.0889004248366
 H1 0.712047 0.659412 0.80791  0.0889004248366
 H1 0.20754 0.856441 0.78267  0.0889004248366
 H1 0.707516 0.85638 0.78263  0.0889004248366
 H1 0.235316 0.780959 0.71587  0.0889004248366
 H1 0.735312 0.780891 0.71585  0.0889004248366
 H1 0.30778 0.742483 0.81005  0.0889004248366
 H1 0.807776 0.742471 0.81004  0.0889004248366
 H1 0.260297 0.882931 0.91696  0.0889004248366
 H1 0.760273 0.88292 0.91693  0.0889004248366
 H1 0.319267 0.822107 0.93729  0.0889004248366
 H1 0.819247 0.822106 0.93727  0.0889004248366
 H1 0.063111 0.090316 0.72300  0.0889004248366
 H1 0.563115 0.090299 0.72301  0.0889004248366
 H1 0.090149 0.0 0.78665  0.0889004248366
 H1 0.590175 0.0 0.78664  0.0889004248366
 H1 0.1751 0.0 0.704  0.0889004248366
 H1 0.675114 0.0 0.7042  0.0889004248366
 H1 0.12414 0.144516 0.60252  0.0889004248366
 H1 0.62414 0.144506 0.60248  0.0889004248366
 H1 0.190672 0.100785 0.59138  0.0889004248366
 H1 0.69067 0.100769 0.5913  0.0889004248366
 H1 0.147864 0.955047 0.56090  0.0889004248366
 H1 0.647855 0.955029 0.56088  0.0889004248366
 H1 0.160581 0.684882 0.93163  0.0889004248366
 H1 0.660562 0.684869 0.93163  0.0889004248366
 H1 0.162279 0.798261 0.91381  0.0889004248366
 H1 0.662265 0.798243 0.91377  0.0889004248366
 H1 0.263527 0.685476 0.94021  0.0889004248366
 H1 0.763513 0.685468 0.94021  0.0889004248366
 C1 0.253269 0.439951 0.80395  0.722097647059
 C1 0.753312 0.439939 0.80394  0.722097647059
 C2 0.313129 0.460445 0.82668  -0.174119019608
 C2 0.813172 0.460415 0.82666  -0.174119019608
 C3 0.313367 0.487319 0.9139  -0.107864019608
 C3 0.813395 0.487315 0.91392  -0.107864019608
 C1 0.386438 0.218621 0.7238  0.722097647059
 C1 0.88639 0.218577 0.72383  0.722097647059
 C2 0.442589 0.222575 0.68385  -0.174119019608
 C2 0.94254 0.222565 0.68384  -0.174119019608
 C3 0.479392 0.294484 0.72134  -0.107864019608
 C3 0.979279 0.294521 0.72135  -0.107864019608
 C2 0.035886 0.302977 0.67984  -0.174119019608
 C2 0.536 0.302798 0.67979  -0.174119019608
 C3 0.029095 0.318596 0.59171  -0.107864019608
 C3 0.529191 0.318439 0.59167  -0.107864019608
 C3 0.339317 0.532342 0.77506  -0.107864019608
 C3 0.839358 0.532306 0.77502  -0.107864019608
 C2 0.39791 0.557396 0.80264  -0.174119019608
 C2 0.897938 0.557416 0.80262  -0.174119019608
 C1 0.424347 0.63193 0.75475  0.722097647059
 C1 0.924356 0.631971 0.75474  0.722097647059
 C3 0.398241 0.58445 0.88978  -0.107864019608
 C3 0.898245 0.584486 0.88975  -0.107864019608
 C2 0.372303 0.512791 0.9418  -0.174119019608
 C2 0.872323 0.512814 0.94184  -0.174119019608
 C1 0.368996 0.540488 0.02793  0.722097647059
 C1 0.869009 0.540479 0.02790  0.722097647059
 C3 0.435414 0.238287 0.5949  -0.107864019608
 C3 0.935383 0.238277 0.59497  -0.107864019608
 C1 0.070447 0.373913 0.72002  0.722097647059
 C1 0.570751 0.373569 0.71991  0.722097647059
 C2 0.49187 0.247062 0.55419  -0.174119019608
 C2 0.99185 0.247134 0.55422  -0.174119019608
 C1 0.486852 0.261009 0.46592  0.722097647059
 C1 0.986858 0.26104 0.46593  0.722097647059
 C1 0.996698 0.059998 0.30368  0.722097647059
 C1 0.496695 0.060004 0.30367  0.722097647059
 C2 0.436791 0.03924 0.32613  -0.174119019608
 C2 0.936797 0.039228 0.32612  -0.174119019608
 C3 0.436535 0.012768 0.41358  -0.107864019608
 C3 0.93653 0.01276 0.41357  -0.107864019608
 C1 0.363685 0.281711 0.2237  0.722097647059
 C1 0.863679 0.281604 0.22377  0.722097647059
 C2 0.307564 0.277573 0.18370  -0.174119019608
 C2 0.80756 0.277513 0.183  -0.174119019608
 C3 0.270947 0.205547 0.22156  -0.107864019608
 C3 0.770936 0.205492 0.22154  -0.107864019608
 C2 0.214343 0.196702 0.18009  -0.174119019608
 C2 0.714327 0.196682 0.18008  -0.174119019608
 C3 0.221174 0.180853 0.09203  -0.107864019608
 C3 0.721155 0.180841 0.09202  -0.107864019608
 C3 0.410793 0.966942 0.27491  -0.107864019608
 C3 0.910805 0.966931 0.27490  -0.107864019608
 C2 0.35225 0.941535 0.30262  -0.174119019608
 C2 0.852254 0.941544 0.30259  -0.174119019608
 C1 0.325892 0.866647 0.25528  0.722097647059
 C1 0.825893 0.866679 0.25523  0.722097647059
 C3 0.352001 0.914824 0.38988  -0.107864019608
 C3 0.852001 0.914812 0.38985  -0.107864019608
 C2 0.37765 0.986918 0.441  -0.174119019608
 C2 0.877643 0.986899 0.44147  -0.174119019608
 C1 0.381007 0.959589 0.52767  0.722097647059
 C1 0.880996 0.959569 0.52765  0.722097647059
 C3 0.314712 0.261695 0.09490  -0.107864019608
 C3 0.814696 0.261672 0.09488  -0.107864019608
 C1 0.179937 0.125796 0.22078  0.722097647059
 C1 0.679922 0.125782 0.22077  0.722097647059
 C2 0.258233 0.252496 0.05421  -0.174119019608
 C2 0.758215 0.252484 0.05420  -0.174119019608
 C1 0.263182 0.238657 0.96593  0.722097647059
 C1 0.763169 0.238655 0.96592  0.722097647059
 C1 0.246693 0.560058 0.19606  0.722097647059
 C1 0.746739 0.560046 0.19604  0.722097647059
 C2 0.186832 0.539589 0.17334  -0.174119019608
 C2 0.686878 0.539558 0.17331  -0.174119019608
 C3 0.186605 0.512694 0.08607  -0.107864019608
 C3 0.686635 0.512691 0.0860  -0.107864019608
 C1 0.113617 0.781437 0.27617  0.722097647059
 C1 0.613565 0.781385 0.27615  0.722097647059
 C2 0.057469 0.777452 0.31616  -0.174119019608
 C2 0.557411 0.777429 0.31614  -0.174119019608
 C3 0.020741 0.705491 0.27864  -0.107864019608
 C3 0.520617 0.705511 0.2786  -0.107864019608
 C2 0.464009 0.697173 0.32020  -0.174119019608
 C2 0.964132 0.697009 0.32014  -0.174119019608
 C3 0.470816 0.681542 0.40832  -0.107864019608
 C3 0.970916 0.681398 0.40827  -0.107864019608
 C3 0.160643 0.4677 0.22497  -0.107864019608
 C3 0.660685 0.467667 0.22493  -0.107864019608
 C2 0.102061 0.442597 0.19737  -0.174119019608
 C2 0.60209 0.44262 0.19735  -0.174119019608
 C1 0.075645 0.36804 0.2452  0.722097647059
 C1 0.575654 0.368083 0.24524  0.722097647059
 C3 0.101749 0.415533 0.11024  -0.107864019608
 C3 0.601753 0.415572 0.11021  -0.107864019608
 C2 0.127676 0.487201 0.05815  -0.174119019608
 C2 0.627697 0.487226 0.05812  -0.174119019608
 C1 0.130991 0.459529 0.97209  0.722097647059
 C1 0.631005 0.459521 0.97206  0.722097647059
 C3 0.064619 0.761741 0.40503  -0.107864019608
 C3 0.564583 0.761725 0.40501  -0.107864019608
 C1 0.429278 0.626381 0.28008  0.722097647059
 C1 0.929614 0.62603 0.27996  0.722097647059
 C2 0.008149 0.752869 0.44577  -0.174119019608
 C2 0.508127 0.752933 0.44580  -0.174119019608
 C1 0.013139 0.738959 0.53406  0.722097647059
 C1 0.513144 0.738984 0.53408  0.722097647059
 C1 0.503305 0.939996 0.69633  0.722097647059
 C1 0.0 0.940002 0.69632  0.722097647059
 C2 0.063201 0.960781 0.67388  -0.174119019608
 C2 0.563207 0.96077 0.67387  -0.174119019608
 C3 0.063467 0.987249 0.58643  -0.107864019608
 C3 0.563461 0.987244 0.58642  -0.107864019608
 C1 0.136314 0.718381 0.77624  0.722097647059
 C1 0.636312 0.718275 0.77622  0.722097647059
 C2 0.192435 0.722484 0.81631  -0.174119019608
 C2 0.692432 0.722425 0.81630  -0.174119019608
 C3 0.229056 0.794508 0.77846  -0.107864019608
 C3 0.729044 0.794456 0.77844  -0.107864019608
 C2 0.285664 0.803323 0.81992  -0.174119019608
 C2 0.785649 0.803303 0.81991  -0.174119019608
 C3 0.278837 0.819166 0.90798  -0.107864019608
 C3 0.778817 0.819158 0.90797  -0.107864019608
 C3 0.089191 0.033082 0.72510  -0.107864019608
 C3 0.589201 0.033071 0.72509  -0.107864019608
 C2 0.147741 0.058471 0.69741  -0.174119019608
 C2 0.647745 0.05848 0.69738  -0.174119019608
 C1 0.174105 0.133336 0.74477  0.722097647059
 C1 0.674106 0.133363 0.7447  0.722097647059
 C3 0.147993 0.085202 0.61015  -0.107864019608
 C3 0.647992 0.085192 0.61012  -0.107864019608
 C2 0.122353 0.013111 0.55853  -0.174119019608
 C2 0.622346 0.013097 0.55851  -0.174119019608
 C1 0.119001 0.040436 0.47235  0.722097647059
 C1 0.618991 0.04042 0.47233  0.722097647059
 C3 0.185297 0.73833 0.90512  -0.107864019608
 C3 0.685282 0.738305 0.90510  -0.107864019608
 C1 0.320069 0.874218 0.77922  0.722097647059
 C1 0.820058 0.874202 0.77921  0.722097647059
 C2 0.241779 0.747521 0.94580  -0.174119019608
 C2 0.741762 0.747511 0.9457  -0.174119019608
 C1 0.236829 0.761351 0.03408  0.722097647059
 C1 0.736814 0.761345 0.03407  0.722097647059
 O1 0.236206 0.359733 0.79986  -0.628716019608
 O1 0.736217 0.359738 0.79986  -0.628716019608
 O2 0.361413 0.288279 0.7367  -0.712664019608
 O2 0.861369 0.288237 0.73670  -0.712664019608
 O2 0.363786 0.145132 0.74608  -0.712664019608
 O2 0.863756 0.14509 0.74608  -0.712664019608
 O2 0.222237 0.503789 0.79350  -0.712664019608
 O2 0.722301 0.503805 0.79351  -0.712664019608
 O2 0.391423 0.682661 0.72005  -0.712664019608
 O2 0.891417 0.682666 0.72003  -0.712664019608
 O2 0.477 0.637998 0.75673  -0.712664019608
 O2 0.977004 0.638097 0.75675  -0.712664019608
 O2 0.354166 0.618341 0.04027  -0.712664019608
 O2 0.85418 0.618323 0.04028  -0.712664019608
 O2 0.379302 0.482718 0.07889  -0.712664019608
 O2 0.879316 0.482664 0.07882  -0.712664019608
 O1 0.083519 0.363186 0.79315  -0.628716019608
 O1 0.583428 0.363137 0.79322  -0.628716019608
 O2 0.084301 0.443449 0.68437  -0.712664019608
 O2 0.58517 0.442677 0.68400  -0.712664019608
 O2 0.030506 0.281868 0.42651  -0.712664019608
 O2 0.5305 0.281858 0.42648  -0.712664019608
 O2 0.439622 0.251916 0.43327  -0.712664019608
 O2 0.939632 0.251921 0.43327  -0.712664019608
 O1 0.013688 0.140288 0.2997  -0.628716019608
 O1 0.513689 0.140292 0.29974  -0.628716019608
 O2 0.38883 0.212101 0.23658  -0.712664019608
 O2 0.888819 0.21199 0.23657  -0.712664019608
 O2 0.386204 0.355153 0.24616  -0.712664019608
 O2 0.886203 0.35504 0.24616  -0.712664019608
 O2 0.027829 0.996283 0.29339  -0.712664019608
 O2 0.527824 0.996286 0.29339  -0.712664019608
 O2 0.358832 0.817086 0.21940  -0.712664019608
 O2 0.858839 0.817159 0.21932  -0.712664019608
 O2 0.273331 0.859041 0.2589  -0.712664019608
 O2 0.773333 0.859033 0.25891  -0.712664019608
 O2 0.395867 0.881835 0.54050  -0.712664019608
 O2 0.895864 0.881821 0.5404  -0.712664019608
 O2 0.370725 0.017664 0.57821  -0.712664019608
 O2 0.870721 0.017651 0.57819  -0.712664019608
 O1 0.166465 0.137071 0.29360  -0.628716019608
 O1 0.666457 0.137065 0.293  -0.628716019608
 O2 0.166634 0.055662 0.18589  -0.712664019608
 O2 0.666625 0.055641 0.18588  -0.712664019608
 O2 0.219519 0.217847 0.92656  -0.712664019608
 O2 0.719508 0.217838 0.92655  -0.712664019608
 O2 0.310381 0.247947 0.93321  -0.712664019608
 O2 0.81037 0.247945 0.93321  -0.712664019608
 O1 0.263789 0.640259 0.20013  -0.628716019608
 O1 0.7638 0.640265 0.20014  -0.628716019608
 O2 0.138637 0.711774 0.26330  -0.712664019608
 O2 0.638588 0.711725 0.26328  -0.712664019608
 O2 0.136254 0.85492 0.2539  -0.712664019608
 O2 0.636217 0.854873 0.25392  -0.712664019608
 O2 0.277704 0.496191 0.20649  -0.712664019608
 O2 0.777773 0.49621 0.20650  -0.712664019608
 O2 0.108586 0.317354 0.27998  -0.712664019608
 O2 0.60858 0.317363 0.27995  -0.712664019608
 O2 0.022997 0.361904 0.24324  -0.712664019608
 O2 0.523002 0.362006 0.24327  -0.712664019608
 O2 0.14582 0.381683 0.95972  -0.712664019608
 O2 0.645834 0.381664 0.95973  -0.712664019608
 O2 0.120685 0.517335 0.9211  -0.712664019608
 O2 0.620698 0.517281 0.92109  -0.712664019608
 O1 0.416562 0.636846 0.20678  -0.628716019608
 O1 0.916459 0.636804 0.20686  -0.628716019608
 O2 0.414906 0.557234 0.31596  -0.712664019608
 O2 0.915891 0.556404 0.31555  -0.712664019608
 O2 0.469497 0.718139 0.57351  -0.712664019608
 O2 0.96949 0.718127 0.57348  -0.712664019608
 O2 0.060366 0.748069 0.56672  -0.712664019608
 O2 0.560375 0.748075 0.56672  -0.712664019608
 O1 0.486314 0.859706 0.70026  -0.628716019608
 O1 0.986315 0.859711 0.70025  -0.628716019608
 O2 0.111179 0.787996 0.76342  -0.712664019608
 O2 0.611166 0.787884 0.76341  -0.712664019608
 O2 0.113799 0.644944 0.75384  -0.712664019608
 O2 0.613797 0.644832 0.75384  -0.712664019608
 O2 0.472172 0.0 0.70661  -0.712664019608
 O2 0.972168 0.0 0.70661  -0.712664019608
 O2 0.14116 0.182879 0.78066  -0.712664019608
 O2 0.641167 0.182943 0.78059  -0.712664019608
 O2 0.226665 0.140953 0.74112  -0.712664019608
 O2 0.726667 0.140946 0.74110  -0.712664019608
 O2 0.104137 0.118185 0.45951  -0.712664019608
 O2 0.604134 0.118173 0.459  -0.712664019608
 O2 0.129278 0.982353 0.42182  -0.712664019608
 O2 0.629272 0.982341 0.42179  -0.712664019608
 O1 0.333541 0.862927 0.70640  -0.628716019608
 O1 0.833532 0.86292 0.70639  -0.628716019608
 O2 0.333377 0.944352 0.81411  -0.712664019608
 O2 0.833365 0.944335 0.81411  -0.712664019608
 O2 0.280491 0.782162 0.07345  -0.712664019608
 O2 0.780477 0.782159 0.0734  -0.712664019608
 O2 0.18963 0.752045 0.06680  -0.712664019608
 O2 0.689618 0.752045 0.066  -0.712664019608
