#======================================================================

# CRYSTAL DATA

#----------------------------------------------------------------------

data_VESTA_phase_1


_pd_phase_name                         MOF
_cell_length_a                         16.24300
_cell_length_b                         16.24500
_cell_length_c                         23.17500
_cell_angle_alpha                      73.29100
_cell_angle_beta                       73.07000
_cell_angle_gamma                      67.44000
_symmetry_space_group_name_H-M         "P 1"
_symmetry_Int_Tables_number            1

loop_
_symmetry_equiv_pos_as_xyz
   "x, y, z"

loop_
   _atom_site_label
   _atom_site_fract_x
   _atom_site_fract_y
   _atom_site_fract_z
 _atom_site_charge
 Zn1 0.994997 0.590483 0.4882  0.94448475
 Zn1 0.409396 0.004866 0.01223  0.94448475
 Zn1 0.005103 0.409472 0.51170  0.94448475
 Zn1 0.590652 0.995068 0.98771  0.94448475
 H1 0.221689 0.552793 0.56448  0.112057442308
 H1 0.356222 0.507766 0.61367  0.112057442308
 H1 0.374463 0.227293 0.64886  0.112057442308
 H1 0.240341 0.273078 0.59988  0.112057442308
 H1 0.599519 0.252071 0.69216  0.112057442308
 H1 0.620308 0.149599 0.79507  0.112057442308
 H1 0.331351 0.208982 0.8522  0.112057442308
 H1 0.30947 0.31194 0.75086  0.112057442308
 H1 0.098764 0.711189 0.40397  0.112057442308
 H1 0.116374 0.859906 0.39972  0.112057442308
 H1 0.90603 0.884404 0.56529  0.112057442308
 H1 0.898858 0.735353 0.5621  0.112057442308
 H1 0.074639 0.99092 0.44104  0.112057442308
 H1 0.447231 0.776141 0.93780  0.112057442308
 H1 0.492098 0.64136 0.88857  0.112057442308
 H1 0.773049 0.622799 0.85235  0.112057442308
 H1 0.727414 0.757298 0.90127  0.112057442308
 H1 0.748043 0.399158 0.80730  0.112057442308
 H1 0.84963 0.379953 0.70355  0.112057442308
 H1 0.788308 0.668857 0.64874  0.112057442308
 H1 0.686224 0.689189 0.75102  0.112057442308
 H1 0.287594 0.902034 0.09646  0.112057442308
 H1 0.13893 0.884471 0.10046  0.112057442308
 H1 0.116241 0.093432 0.93489  0.112057442308
 H1 0.265205 0.100555 0.93828  0.112057442308
 H1 0.0 0.925583 0.05880  0.112057442308
 H1 0.778224 0.447163 0.43556  0.112057442308
 H1 0.643705 0.492234 0.38635  0.112057442308
 H1 0.625655 0.772663 0.35107  0.112057442308
 H1 0.759866 0.726823 0.39997  0.112057442308
 H1 0.400522 0.747875 0.30777  0.112057442308
 H1 0.379754 0.850297 0.2048  0.112057442308
 H1 0.668707 0.791005 0.14770  0.112057442308
 H1 0.69057 0.688078 0.24912  0.112057442308
 H1 0.901289 0.288817 0.59598  0.112057442308
 H1 0.883654 0.140098 0.60026  0.112057442308
 H1 0.094 0.115522 0.43469  0.112057442308
 H1 0.101178 0.264585 0.43782  0.112057442308
 H1 0.925376 0.0 0.5589  0.112057442308
 H1 0.55281 0.223832 0.06206  0.112057442308
 H1 0.507977 0.358591 0.11131  0.112057442308
 H1 0.227025 0.377115 0.14762  0.112057442308
 H1 0.272627 0.242618 0.09871  0.112057442308
 H1 0.252151 0.600771 0.19262  0.112057442308
 H1 0.150625 0.619998 0.29639  0.112057442308
 H1 0.211662 0.331116 0.35115  0.112057442308
 H1 0.313805 0.310759 0.24889  0.112057442308
 H1 0.712455 0.09791 0.90349  0.112057442308
 H1 0.861109 0.115486 0.89950  0.112057442308
 H1 0.883781 0.906547 0.06508  0.112057442308
 H1 0.734825 0.899414 0.06169  0.112057442308
 H1 0.991385 0.074387 0.94117  0.112057442308
 C1 0.141647 0.442744 0.55139  0.70654475
 C2 0.222573 0.415707 0.57975  -0.07071025
 C3 0.255647 0.481807 0.58320  -0.142414340909
 C3 0.329916 0.457202 0.61040  -0.142414340909
 C4 0.371487 0.365661 0.63432  0.30615725
 C3 0.340463 0.298474 0.63049  -0.142414340909
 C3 0.26599 0.323956 0.60340  -0.142414340909
 C4 0.453843 0.286397 0.7154  0.30615725
 C3 0.541479 0.241594 0.72775  -0.142414340909
 C3 0.552595 0.185188 0.78478  -0.142414340909
 C2 0.477176 0.171883 0.82992  -0.07071025
 C3 0.389968 0.2181 0.81685  -0.142414340909
 C3 0.377546 0.275598 0.76031  -0.142414340909
 C1 0.48915 0.109516 0.89076  0.70654475
 C5 0.057553 0.752949 0.43820  0.18241975
 C3 0.066666 0.835245 0.43646  -0.142414340909
 C2 0.012436 0.886118 0.48214  -0.07071025
 C3 0.950225 0.849446 0.528  -0.142414340909
 C5 0.94503 0.766874 0.52693  0.18241975
 C3 0.023347 0.972068 0.47973  -0.142414340909
 C1 0.55745 0.856809 0.9498  0.70654475
 C2 0.584526 0.775305 0.92184  -0.07071025
 C3 0.518292 0.742027 0.91888  -0.142414340909
 C3 0.542799 0.66765 0.89163  -0.142414340909
 C4 0.634419 0.626023 0.8673  0.30615725
 C3 0.7018 0.656955 0.87095  -0.142414340909
 C3 0.676402 0.731579 0.89805  -0.142414340909
 C4 0.71286 0.544733 0.7853  0.30615725
 C3 0.75787 0.457548 0.7720  -0.142414340909
 C3 0.813789 0.447304 0.71456  -0.142414340909
 C2 0.826342 0.523155 0.66987  -0.07071025
 C3 0.779792 0.609916 0.68382  -0.142414340909
 C3 0.722767 0.621463 0.74084  -0.142414340909
 C1 0.888624 0.512007 0.60868  0.70654475
 C5 0.246262 0.94294 0.06215  0.18241975
 C3 0.163979 0.93386 0.06376  -0.142414340909
 C2 0.113633 0.987676 0.01800  -0.07071025
 C3 0.150766 0.049554 0.97204  -0.142414340909
 C5 0.2333 0.054721 0.97343  0.18241975
 C3 0.027725 0.976746 0.02025  -0.142414340909
 C1 0.858418 0.557088 0.44857  0.70654475
 C2 0.777506 0.584204 0.42018  -0.07071025
 C3 0.744301 0.518149 0.41682  -0.142414340909
 C3 0.670061 0.542778 0.38959  -0.142414340909
 C4 0.628541 0.634321 0.36564  0.30615725
 C3 0.659641 0.701477 0.36944  -0.142414340909
 C3 0.734129 0.675964 0.39652  -0.142414340909
 C4 0.546194 0.713587 0.28454  0.30615725
 C3 0.458566 0.758359 0.27219  -0.142414340909
 C3 0.447463 0.814748 0.21515  -0.142414340909
 C2 0.522886 0.828065 0.17002  -0.07071025
 C3 0.610085 0.781883 0.18311  -0.142414340909
 C3 0.622497 0.724396 0.23965  -0.142414340909
 C1 0.510938 0.890404 0.10916  0.70654475
 C5 0.942487 0.247045 0.56175  0.18241975
 C3 0.933364 0.164744 0.56351  -0.142414340909
 C2 0.987589 0.113846 0.51785  -0.07071025
 C3 0.049806 0.150498 0.47178  -0.142414340909
 C5 0.055011 0.233074 0.4730  0.18241975
 C3 0.97667 0.027894 0.52026  -0.142414340909
 C1 0.442569 0.143134 0.05012  0.70654475
 C2 0.415509 0.224664 0.07805  -0.07071025
 C3 0.481759 0.257912 0.08102  -0.142414340909
 C3 0.457268 0.3323 0.10826  -0.142414340909
 C4 0.365658 0.373907 0.13259  0.30615725
 C3 0.298265 0.342972 0.12900  -0.142414340909
 C3 0.323648 0.268331 0.10192  -0.142414340909
 C4 0.287253 0.455204 0.21461  0.30615725
 C3 0.242277 0.542392 0.22787  -0.142414340909
 C3 0.186437 0.552646 0.28538  -0.142414340909
 C2 0.173777 0.476815 0.33004  -0.07071025
 C3 0.220275 0.390049 0.31609  -0.142414340909
 C3 0.27727 0.378488 0.25907  -0.142414340909
 C1 0.111504 0.488017 0.39122  0.70654475
 C5 0.753782 0.05701 0.93781  0.18241975
 C3 0.836057 0.066103 0.93620  -0.142414340909
 C2 0.886399 0.01229 0.98196  -0.07071025
 C3 0.84926 0.95042 0.02793  -0.142414340909
 C5 0.766734 0.945243 0.0265  0.18241975
 C3 0.972301 0.023227 0.97972  -0.142414340909
 N1 0.997543 0.719107 0.4826  -0.27997525
 N1 0.280588 0.002575 0.01776  -0.27997525
 N1 0.002502 0.280863 0.51731  -0.27997525
 N1 0.719449 0.997382 0.98219  -0.27997525
 O1 0.105787 0.527253 0.53080  -0.61602025
 O1 0.114735 0.379262 0.5501  -0.61602025
 O2 0.447786 0.343912 0.65867  -0.26873025
 O1 0.568059 0.079959 0.90355  -0.61602025
 O1 0.419294 0.090228 0.92538  -0.61602025
 O1 0.472879 0.892459 0.97095  -0.61602025
 O1 0.620901 0.88456 0.94999  -0.61602025
 O2 0.656158 0.549923 0.84260  -0.26873025
 O1 0.918786 0.43331 0.59533  -0.61602025
 O1 0.907455 0.582129 0.57445  -0.61602025
 O1 0.893678 0.472664 0.46970  -0.61602025
 O1 0.885947 0.620428 0.44927  -0.61602025
 O2 0.552235 0.656102 0.34129  -0.26873025
 O1 0.43208 0.919835 0.09631  -0.61602025
 O1 0.580759 0.909822 0.07460  -0.61602025
 O1 0.527109 0.107626 0.02881  -0.61602025
 O1 0.379127 0.115297 0.05004  -0.61602025
 O2 0.34395 0.450001 0.15732  -0.26873025
 O1 0.082173 0.56648 0.40482  -0.61602025
 O1 0.091921 0.418151 0.42523  -0.61602025
