#======================================================================

# CRYSTAL DATA

#----------------------------------------------------------------------

data_VESTA_phase_1


_pd_phase_name                         MOF
_cell_length_a                         16.98500
_cell_length_b                         20.63100
_cell_length_c                         14.17600
_cell_angle_alpha                      67.19200
_cell_angle_beta                       75.13300
_cell_angle_gamma                      76.55400
_symmetry_space_group_name_H-M         "P 1"
_symmetry_Int_Tables_number            1

loop_
_symmetry_equiv_pos_as_xyz
   "x, y, z"

loop_
   _atom_site_label
   _atom_site_fract_x
   _atom_site_fract_y
   _atom_site_fract_z
 _atom_site_charge
 Zn1 0.464142 0.217165 0.15353  0.977779230769
 Zn1 0.464137 0.717157 0.15355  0.977779230769
 Zn1 0.964148 0.217163 0.15353  0.977779230769
 Zn1 0.964133 0.71716 0.15354  0.977779230769
 Zn1 0.035867 0.282841 0.84691  0.977779230769
 Zn1 0.03586 0.78284 0.8469  0.977779230769
 Zn1 0.535876 0.282846 0.84690  0.977779230769
 Zn1 0.535878 0.782838 0.84692  0.977779230769
 H1 0.114663 0.097512 0.09940  0.110399230769
 H1 0.114648 0.597515 0.09938  0.110399230769
 H1 0.614662 0.09751 0.09940  0.110399230769
 H1 0.614647 0.59749 0.09943  0.110399230769
 H1 0.259749 0.165914 0.2349  0.110399230769
 H1 0.259735 0.665895 0.23493  0.110399230769
 H1 0.759757 0.165897 0.23492  0.110399230769
 H1 0.759758 0.665886 0.23492  0.110399230769
 H1 0.097484 0.235849 0.26100  0.110399230769
 H1 0.097471 0.735834 0.26101  0.110399230769
 H1 0.597495 0.235838 0.26101  0.110399230769
 H1 0.597498 0.735832 0.26101  0.110399230769
 H1 0.329021 0.100345 0.09083  0.110399230769
 H1 0.329007 0.600333 0.09083  0.110399230769
 H1 0.829023 0.10033 0.09084  0.110399230769
 H1 0.829017 0.600302 0.09087  0.110399230769
 H1 0.297299 0.029014 0.20222  0.110399230769
 H1 0.297277 0.529 0.20221  0.110399230769
 H1 0.797295 0.028998 0.20222  0.110399230769
 H1 0.797271 0.52897 0.20224  0.110399230769
 H1 0.216003 0.459139 0.26998  0.110399230769
 H1 0.216058 0.959137 0.27000  0.110399230769
 H1 0.715989 0.459114 0.26999  0.110399230769
 H1 0.716048 0.959123 0.26999  0.110399230769
 H1 0.192129 0.386187 0.25333  0.110399230769
 H1 0.192143 0.886196 0.2533  0.110399230769
 H1 0.692124 0.386164 0.25332  0.110399230769
 H1 0.692136 0.886187 0.25333  0.110399230769
 H1 0.295714 0.391963 0.24452  0.110399230769
 H1 0.295741 0.891947 0.24453  0.110399230769
 H1 0.795706 0.391943 0.24453  0.110399230769
 H1 0.795733 0.891936 0.24451  0.110399230769
 H1 0.282295 0.170659 0.96361  0.110399230769
 H1 0.282292 0.670655 0.96361  0.110399230769
 H1 0.782289 0.170659 0.96363  0.110399230769
 H1 0.7823 0.670639 0.96365  0.110399230769
 H1 0.344784 0.150416 0.85526  0.110399230769
 H1 0.344786 0.650416 0.85526  0.110399230769
 H1 0.844781 0.150425 0.85527  0.110399230769
 H1 0.844795 0.650407 0.85529  0.110399230769
 H1 0.238014 0.180231 0.85847  0.110399230769
 H1 0.238016 0.680239 0.85846  0.110399230769
 H1 0.738011 0.18024 0.85848  0.110399230769
 H1 0.738026 0.680232 0.85849  0.110399230769
 H1 0.461729 0.019607 0.16957  0.110399230769
 H1 0.461704 0.519599 0.16958  0.110399230769
 H1 0.961722 0.019602 0.16958  0.110399230769
 H1 0.961702 0.519596 0.16958  0.110399230769
 H1 0.033701 0.101599 0.83630  0.110399230769
 H1 0.033681 0.601606 0.83631  0.110399230769
 H1 0.5337 0.101603 0.83629  0.110399230769
 H1 0.533698 0.601609 0.83630  0.110399230769
 H1 0.385384 0.288148 0.47079  0.110399230769
 H1 0.385404 0.788087 0.47085  0.110399230769
 H1 0.885385 0.288155 0.47078  0.110399230769
 H1 0.885403 0.7881 0.4708  0.110399230769
 H1 0.224301 0.201108 0.37787  0.110399230769
 H1 0.224279 0.701142 0.37785  0.110399230769
 H1 0.724303 0.20111 0.3778  0.110399230769
 H1 0.724289 0.701127 0.37786  0.110399230769
 H1 0.385349 0.402474 0.90113  0.110399230769
 H1 0.385352 0.902461 0.90116  0.110399230769
 H1 0.885356 0.402473 0.90113  0.110399230769
 H1 0.885357 0.902482 0.90112  0.110399230769
 H1 0.240239 0.334123 0.76558  0.110399230769
 H1 0.240239 0.834116 0.76561  0.110399230769
 H1 0.740248 0.334127 0.76557  0.110399230769
 H1 0.740236 0.834115 0.76560  0.110399230769
 H1 0.402499 0.264175 0.73948  0.110399230769
 H1 0.402501 0.764172 0.73950  0.110399230769
 H1 0.902506 0.264174 0.73948  0.110399230769
 H1 0.902493 0.764164 0.73951  0.110399230769
 H1 0.170993 0.399645 0.90974  0.110399230769
 H1 0.171 0.899621 0.90980  0.110399230769
 H1 0.670999 0.399653 0.90971  0.110399230769
 H1 0.670998 0.899646 0.9097  0.110399230769
 H1 0.202689 0.470998 0.79837  0.110399230769
 H1 0.202675 0.970977 0.79842  0.110399230769
 H1 0.702706 0.471007 0.79835  0.110399230769
 H1 0.702691 0.970999 0.79838  0.110399230769
 H1 0.284001 0.040838 0.73062  0.110399230769
 H1 0.284032 0.54085 0.73059  0.110399230769
 H1 0.784002 0.040868 0.73060  0.110399230769
 H1 0.784043 0.54086 0.730  0.110399230769
 H1 0.307791 0.113828 0.74726  0.110399230769
 H1 0.307773 0.613854 0.74725  0.110399230769
 H1 0.807787 0.113852 0.74726  0.110399230769
 H1 0.807791 0.613854 0.74727  0.110399230769
 H1 0.204227 0.107968 0.7561  0.110399230769
 H1 0.204224 0.607961 0.75607  0.110399230769
 H1 0.704225 0.107991 0.75609  0.110399230769
 H1 0.704241 0.607972 0.7560  0.110399230769
 H1 0.217711 0.329323 0.03697  0.110399230769
 H1 0.217738 0.829306 0.03702  0.110399230769
 H1 0.717709 0.329322 0.03694  0.110399230769
 H1 0.717729 0.829319 0.03697  0.110399230769
 H1 0.15519 0.349581 0.14529  0.110399230769
 H1 0.155218 0.849567 0.14534  0.110399230769
 H1 0.655186 0.349573 0.14527  0.110399230769
 H1 0.655214 0.849571 0.14530  0.110399230769
 H1 0.261952 0.319748 0.14214  0.110399230769
 H1 0.261981 0.819743 0.14218  0.110399230769
 H1 0.761947 0.319736 0.14212  0.110399230769
 H1 0.761977 0.819745 0.14213  0.110399230769
 H1 0.038293 0.480421 0.83089  0.110399230769
 H1 0.038294 0.980412 0.83090  0.110399230769
 H1 0.538302 0.480426 0.83089  0.110399230769
 H1 0.538298 0.980414 0.83089  0.110399230769
 H1 0.466307 0.398416 0.16417  0.110399230769
 H1 0.466325 0.898418 0.16418  0.110399230769
 H1 0.966311 0.398411 0.16417  0.110399230769
 H1 0.966311 0.898416 0.16418  0.110399230769
 H1 0.114592 0.211873 0.52963  0.110399230769
 H1 0.11457 0.711907 0.52961  0.110399230769
 H1 0.614592 0.211879 0.52962  0.110399230769
 H1 0.614579 0.711895 0.52962  0.110399230769
 H1 0.275674 0.298916 0.62255  0.110399230769
 H1 0.275693 0.798856 0.62261  0.110399230769
 H1 0.775674 0.298925 0.62254  0.110399230769
 H1 0.775692 0.798872 0.62259  0.110399230769
 C1 0.129799 0.125862 0.14084  0.156329230769
 C1 0.129784 0.625859 0.14084  0.156329230769
 C1 0.629801 0.125857 0.14085  0.156329230769
 C1 0.629791 0.62584 0.14087  0.156329230769
 C2 0.204811 0.161937 0.21287  -0.0566557692308
 C2 0.204797 0.661923 0.21288  -0.0566557692308
 C2 0.704817 0.161925 0.21288  -0.0566557692308
 C2 0.704816 0.661913 0.21288  -0.0566557692308
 C2 0.125626 0.196981 0.22364  -0.0566557692308
 C2 0.125613 0.696969 0.22364  -0.0566557692308
 C2 0.625635 0.196971 0.22365  -0.0566557692308
 C2 0.625634 0.696961 0.22365  -0.0566557692308
 C3 0.278775 0.068661 0.13055  -0.0363907692308
 C3 0.278757 0.568653 0.13054  -0.0363907692308
 C3 0.778774 0.06865 0.13055  -0.0363907692308
 C3 0.778761 0.568628 0.13057  -0.0363907692308
 C4 0.262721 0.033289 0.0632  -0.0553797692308
 C4 0.262703 0.533287 0.06321  -0.0553797692308
 C4 0.762718 0.033286 0.06322  -0.0553797692308
 C4 0.762705 0.533271 0.06323  -0.0553797692308
 C4 0.243865 0.463336 0.10891  -0.0553797692308
 C4 0.243884 0.963333 0.10894  -0.0553797692308
 C4 0.743863 0.463321 0.10892  -0.0553797692308
 C4 0.743878 0.963332 0.10892  -0.0553797692308
 C4 0.267565 0.070624 0.95541  -0.0553797692308
 C4 0.267556 0.570628 0.95539  -0.0553797692308
 C4 0.767562 0.07063 0.95540  -0.0553797692308
 C4 0.767562 0.570618 0.95541  -0.0553797692308
 C5 0.236521 0.423647 0.22464  -0.343220769231
 C5 0.236551 0.923644 0.22467  -0.343220769231
 C5 0.736514 0.423626 0.22465  -0.343220769231
 C5 0.736543 0.923635 0.2246  -0.343220769231
 C5 0.283902 0.146556 0.90654  -0.343220769231
 C5 0.2839 0.646558 0.90653  -0.343220769231
 C5 0.783898 0.146562 0.90654  -0.343220769231
 C5 0.783909 0.646547 0.90656  -0.343220769231
 C6 0.493811 0.139923 0.00617  0.669384230769
 C6 0.493798 0.63992 0.0061  0.669384230769
 C6 0.993813 0.139918 0.00617  0.669384230769
 C6 0.993784 0.639919 0.0061  0.669384230769
 C4 0.496983 0.067528 0.00323  -0.0553797692308
 C4 0.496968 0.567527 0.00324  -0.0553797692308
 C4 0.996986 0.067523 0.00324  -0.0553797692308
 C4 0.996963 0.567524 0.00324  -0.0553797692308
 C7 0.478324 0.010437 0.09575  -0.0597945192308
 C7 0.478303 0.510434 0.09576  -0.0597945192308
 C7 0.97832 0.010433 0.09576  -0.0597945192308
 C7 0.978302 0.51043 0.09576  -0.0597945192308
 C7 0.019092 0.056748 0.90744  -0.0597945192308
 C7 0.019074 0.556753 0.90744  -0.0597945192308
 C7 0.519098 0.056753 0.9074  -0.0597945192308
 C7 0.51909 0.556756 0.90744  -0.0597945192308
 C6 0.378312 0.2396 0.32366  0.669384230769
 C6 0.378311 0.739584 0.32368  0.669384230769
 C6 0.878315 0.2396 0.32366  0.669384230769
 C6 0.878313 0.73959 0.3236  0.669384230769
 C4 0.311681 0.244228 0.41476  -0.0553797692308
 C4 0.311679 0.744215 0.41478  -0.0553797692308
 C4 0.811683 0.244231 0.41475  -0.0553797692308
 C4 0.811683 0.744215 0.41477  -0.0553797692308
 C7 0.325767 0.271652 0.48443  -0.0597945192308
 C7 0.325779 0.771609 0.48448  -0.0597945192308
 C7 0.825768 0.271658 0.48442  -0.0597945192308
 C7 0.825778 0.771622 0.48446  -0.0597945192308
 C7 0.235249 0.222604 0.43155  -0.0597945192308
 C7 0.235237 0.722614 0.43155  -0.0597945192308
 C7 0.735251 0.222606 0.43155  -0.0597945192308
 C7 0.735242 0.722611 0.43155  -0.0597945192308
 C1 0.370207 0.374139 0.85967  0.156329230769
 C1 0.37021 0.874128 0.85970  0.156329230769
 C1 0.870215 0.374138 0.85966  0.156329230769
 C1 0.870212 0.874142 0.85967  0.156329230769
 C2 0.29518 0.338087 0.78763  -0.0566557692308
 C2 0.295181 0.838079 0.78766  -0.0566557692308
 C2 0.795189 0.338089 0.78762  -0.0566557692308
 C2 0.795178 0.838081 0.78765  -0.0566557692308
 C2 0.374361 0.303038 0.77685  -0.0566557692308
 C2 0.374363 0.803033 0.77687  -0.0566557692308
 C2 0.874369 0.303038 0.77685  -0.0566557692308
 C2 0.874359 0.803032 0.77687  -0.0566557692308
 C3 0.221232 0.431336 0.87002  -0.0363907692308
 C3 0.221232 0.931318 0.87007  -0.0363907692308
 C3 0.721242 0.431341 0.87001  -0.0363907692308
 C3 0.721236 0.931337 0.87003  -0.0363907692308
 C4 0.237294 0.466693 0.93736  -0.0553797692308
 C4 0.2373 0.96668 0.93740  -0.0553797692308
 C4 0.737301 0.466691 0.93736  -0.0553797692308
 C4 0.7373 0.966693 0.93737  -0.0553797692308
 C4 0.256133 0.036637 0.89169  -0.0553797692308
 C4 0.256125 0.536648 0.89166  -0.0553797692308
 C4 0.756131 0.036651 0.89167  -0.0553797692308
 C4 0.756134 0.536645 0.89167  -0.0553797692308
 C4 0.232439 0.429355 0.0451  -0.0553797692308
 C4 0.232456 0.929346 0.04521  -0.0553797692308
 C4 0.73244 0.429347 0.04517  -0.0553797692308
 C4 0.732453 0.929351 0.04518  -0.0553797692308
 C5 0.263444 0.076328 0.77596  -0.343220769231
 C5 0.263446 0.576338 0.77593  -0.343220769231
 C5 0.763443 0.07635 0.7759  -0.343220769231
 C5 0.763459 0.576343 0.77594  -0.343220769231
 C5 0.216086 0.353428 0.09405  -0.343220769231
 C5 0.216112 0.853417 0.09409  -0.343220769231
 C5 0.716083 0.353421 0.09403  -0.343220769231
 C5 0.716106 0.853423 0.09405  -0.343220769231
 C6 0.006227 0.360096 0.99426  0.669384230769
 C6 0.006221 0.860093 0.9942  0.669384230769
 C6 0.506238 0.3601 0.99426  0.669384230769
 C6 0.506248 0.860092 0.99428  0.669384230769
 C4 0.003042 0.432488 0.99723  -0.0553797692308
 C4 0.003043 0.932485 0.99723  -0.0553797692308
 C4 0.503053 0.432492 0.99723  -0.0553797692308
 C4 0.503061 0.932487 0.99723  -0.0553797692308
 C7 0.021698 0.489584 0.90471  -0.0597945192308
 C7 0.021701 0.989578 0.9047  -0.0597945192308
 C7 0.521709 0.489589 0.90471  -0.0597945192308
 C7 0.521709 0.989581 0.90471  -0.0597945192308
 C7 0.480923 0.443265 0.09303  -0.0597945192308
 C7 0.480936 0.943265 0.09303  -0.0597945192308
 C7 0.980925 0.443261 0.09303  -0.0597945192308
 C7 0.980928 0.943262 0.09303  -0.0597945192308
 C6 0.121662 0.260413 0.6767  0.669384230769
 C6 0.121657 0.760407 0.67677  0.669384230769
 C6 0.621663 0.260421 0.67675  0.669384230769
 C6 0.621666 0.760402 0.67677  0.669384230769
 C4 0.188295 0.255792 0.58566  -0.0553797692308
 C4 0.188292 0.755781 0.58568  -0.0553797692308
 C4 0.688295 0.255799 0.58565  -0.0553797692308
 C4 0.688295 0.755785 0.58567  -0.0553797692308
 C7 0.174209 0.228371 0.51598  -0.0597945192308
 C7 0.174195 0.728385 0.51598  -0.0597945192308
 C7 0.674209 0.228376 0.51598  -0.0597945192308
 C7 0.674205 0.728372 0.51599  -0.0597945192308
 C7 0.264726 0.277421 0.56886  -0.0597945192308
 C7 0.264735 0.777383 0.56890  -0.0597945192308
 C7 0.764726 0.277428 0.56885  -0.0597945192308
 C7 0.764739 0.777385 0.56890  -0.0597945192308
 N1 0.079333 0.174348 0.17795  -0.410470769231
 N1 0.07932 0.674343 0.17794  -0.410470769231
 N1 0.579339 0.174343 0.17795  -0.410470769231
 N1 0.579333 0.67433 0.17797  -0.410470769231
 N2 0.2061 0.116921 0.16069  0.0752192307692
 N2 0.206085 0.616913 0.16069  0.0752192307692
 N2 0.706103 0.116911 0.16070  0.0752192307692
 N2 0.706095 0.616896 0.16071  0.0752192307692
 N1 0.420663 0.325657 0.82255  -0.410470769231
 N1 0.420666 0.82565 0.82257  -0.410470769231
 N1 0.920671 0.325655 0.8225  -0.410470769231
 N1 0.920665 0.825656 0.82255  -0.410470769231
 N2 0.293903 0.383092 0.83982  0.0752192307692
 N2 0.293904 0.883081 0.83985  0.0752192307692
 N2 0.793912 0.383094 0.83981  0.0752192307692
 N2 0.793906 0.883092 0.83983  0.0752192307692
 O1 0.444699 0.1553 0.08207  -0.612884102564
 O1 0.44468 0.655297 0.08209  -0.612884102564
 O1 0.9447 0.155294 0.08208  -0.612884102564
 O1 0.944666 0.655295 0.08209  -0.612884102564
 O1 0.041942 0.17953 0.93403  -0.612884102564
 O1 0.041915 0.679532 0.93405  -0.612884102564
 O1 0.541955 0.179534 0.9340  -0.612884102564
 O1 0.541948 0.679529 0.93405  -0.612884102564
 O1 0.363398 0.211215 0.26312  -0.612884102564
 O1 0.36339 0.711214 0.26313  -0.612884102564
 O1 0.863403 0.211213 0.26312  -0.612884102564
 O1 0.863396 0.711211 0.26313  -0.612884102564
 O2 0.444306 0.262684 0.30740  -0.602740769231
 O2 0.444312 0.762657 0.30743  -0.602740769231
 O2 0.944309 0.262686 0.30740  -0.602740769231
 O2 0.944311 0.762667 0.30742  -0.602740769231
 O1 0.055325 0.344738 0.91833  -0.612884102564
 O1 0.055319 0.844732 0.91835  -0.612884102564
 O1 0.555335 0.344742 0.91833  -0.612884102564
 O1 0.555342 0.844733 0.91835  -0.612884102564
 O1 0.458112 0.320474 0.06640  -0.612884102564
 O1 0.458127 0.820467 0.06643  -0.612884102564
 O1 0.958113 0.320471 0.06640  -0.612884102564
 O1 0.958105 0.820471 0.06642  -0.612884102564
 O1 0.136577 0.288817 0.73727  -0.612884102564
 O1 0.136573 0.788809 0.73728  -0.612884102564
 O1 0.636582 0.28882 0.73726  -0.612884102564
 O1 0.636581 0.788812 0.73728  -0.612884102564
 O2 0.055676 0.237308 0.69305  -0.602740769231
 O2 0.055669 0.737305 0.69306  -0.602740769231
 O2 0.555675 0.237319 0.69304  -0.602740769231
 O2 0.555678 0.7373 0.69307  -0.602740769231
