#======================================================================

# CRYSTAL DATA

#----------------------------------------------------------------------

data_VESTA_phase_1


_pd_phase_name                         MOF
_cell_length_a                         15.94500
_cell_length_b                         19.36200
_cell_length_c                         21.91000
_cell_angle_alpha                      64.22800
_cell_angle_beta                       88.74300
_cell_angle_gamma                      76.38200
_symmetry_space_group_name_H-M         "P 1"
_symmetry_Int_Tables_number            1

loop_
_symmetry_equiv_pos_as_xyz
   "x, y, z"

loop_
   _atom_site_label
   _atom_site_fract_x
   _atom_site_fract_y
   _atom_site_fract_z
 _atom_site_charge
 Zn1 0.184413 0.225441 0.2248  0.930489259259
 Zn1 0.181738 0.226573 0.72550  0.930489259259
 Zn1 0.184416 0.725447 0.22481  0.930489259259
 Zn1 0.181726 0.726583 0.72550  0.930489259259
 Zn1 0.68443 0.22544 0.22481  0.930489259259
 Zn1 0.681743 0.226576 0.72550  0.930489259259
 Zn1 0.684426 0.725449 0.22480  0.930489259259
 Zn1 0.681751 0.726581 0.72550  0.930489259259
 Zn1 0.31826 0.273396 0.27448  0.930489259259
 Zn1 0.31559 0.274525 0.77517  0.930489259259
 Zn1 0.318264 0.773403 0.27448  0.930489259259
 Zn1 0.315584 0.774537 0.7751  0.930489259259
 Zn1 0.81828 0.273396 0.27448  0.930489259259
 Zn1 0.8156 0.27453 0.77517  0.930489259259
 Zn1 0.818272 0.773404 0.27448  0.930489259259
 Zn1 0.815605 0.774534 0.77517  0.930489259259
 H1 0.046883 0.097234 0.27779  0.104098009259
 H1 0.044517 0.0985 0.77840  0.104098009259
 H1 0.046877 0.597244 0.27779  0.104098009259
 H1 0.044525 0.598506 0.7784  0.104098009259
 H1 0.546893 0.097236 0.27778  0.104098009259
 H1 0.544544 0.098498 0.77840  0.104098009259
 H1 0.546894 0.597245 0.27779  0.104098009259
 H1 0.544527 0.598513 0.77840  0.104098009259
 H1 0.346258 0.020449 0.21539  0.104098009259
 H1 0.343913 0.021712 0.71601  0.104098009259
 H1 0.346267 0.520453 0.21539  0.104098009259
 H1 0.343906 0.52172 0.71600  0.104098009259
 H1 0.846278 0.02045 0.21539  0.104098009259
 H1 0.843919 0.021715 0.71600  0.104098009259
 H1 0.846277 0.520457 0.21539  0.104098009259
 H1 0.843929 0.52172 0.71600  0.104098009259
 H1 0.209375 0.142198 0.13751  0.104098009259
 H1 0.207951 0.142797 0.6388  0.104098009259
 H1 0.209387 0.642211 0.13751  0.104098009259
 H1 0.207933 0.642792 0.63887  0.104098009259
 H1 0.709415 0.142224 0.13750  0.104098009259
 H1 0.707958 0.142801 0.63886  0.104098009259
 H1 0.709407 0.642228 0.13750  0.104098009259
 H1 0.707957 0.642793 0.63887  0.104098009259
 H1 0.139224 0.157907 0.0313  0.104098009259
 H1 0.139232 0.157953 0.53237  0.104098009259
 H1 0.139236 0.657918 0.03131  0.104098009259
 H1 0.139211 0.657939 0.5323  0.104098009259
 H1 0.639269 0.157937 0.03130  0.104098009259
 H1 0.639241 0.157955 0.53237  0.104098009259
 H1 0.639257 0.657939 0.03130  0.104098009259
 H1 0.639234 0.657941 0.53238  0.104098009259
 H1 0.146921 0.015302 0.40861  0.104098009259
 H1 0.146045 0.015084 0.90924  0.104098009259
 H1 0.146929 0.515306 0.40861  0.104098009259
 H1 0.146044 0.515094 0.90924  0.104098009259
 H1 0.646942 0.015299 0.40861  0.104098009259
 H1 0.646057 0.015088 0.90924  0.104098009259
 H1 0.646936 0.515309 0.40861  0.104098009259
 H1 0.646061 0.515092 0.90924  0.104098009259
 H1 0.99761 0.295998 0.16272  0.104098009259
 H1 0.994991 0.296915 0.66237  0.104098009259
 H1 0.997605 0.795988 0.16273  0.104098009259
 H1 0.994988 0.796939 0.66236  0.104098009259
 H1 0.497615 0.295969 0.16273  0.104098009259
 H1 0.494999 0.296923 0.66237  0.104098009259
 H1 0.49761 0.795976 0.16273  0.104098009259
 H1 0.495008 0.79693 0.66237  0.104098009259
 H1 0.332828 0.101458 0.47603  0.104098009259
 H1 0.331361 0.102537 0.97578  0.104098009259
 H1 0.332836 0.601463 0.47603  0.104098009259
 H1 0.331358 0.602549 0.9757  0.104098009259
 H1 0.83285 0.101454 0.47603  0.104098009259
 H1 0.831371 0.102541 0.97578  0.104098009259
 H1 0.832843 0.601469 0.47603  0.104098009259
 H1 0.831374 0.602551 0.9757  0.104098009259
 H1 0.4185 0.31996 0.05770  0.104098009259
 H1 0.4173 0.320454 0.55692  0.104098009259
 H1 0.418491 0.819965 0.05770  0.104098009259
 H1 0.417306 0.820459 0.55692  0.104098009259
 H1 0.918524 0.319997 0.05768  0.104098009259
 H1 0.917319 0.320447 0.5569  0.104098009259
 H1 0.918518 0.819979 0.05769  0.104098009259
 H1 0.917317 0.820468 0.5569  0.104098009259
 H1 0.455469 0.401476 0.22156  0.104098009259
 H1 0.453126 0.402725 0.72219  0.104098009259
 H1 0.455459 0.901487 0.22156  0.104098009259
 H1 0.453129 0.902732 0.72219  0.104098009259
 H1 0.955477 0.401478 0.2215  0.104098009259
 H1 0.953146 0.402725 0.7221  0.104098009259
 H1 0.955479 0.901487 0.22156  0.104098009259
 H1 0.953138 0.902736 0.72219  0.104098009259
 H1 0.156086 0.478245 0.2839  0.104098009259
 H1 0.153734 0.47953 0.78458  0.104098009259
 H1 0.156091 0.978251 0.28397  0.104098009259
 H1 0.153727 0.979541 0.7845  0.104098009259
 H1 0.656104 0.478247 0.28396  0.104098009259
 H1 0.653738 0.479536 0.78457  0.104098009259
 H1 0.656102 0.978255 0.28396  0.104098009259
 H1 0.653753 0.979537 0.78457  0.104098009259
 H1 0.292061 0.3572 0.36109  0.104098009259
 H1 0.290621 0.357739 0.86247  0.104098009259
 H1 0.292057 0.857193 0.36110  0.104098009259
 H1 0.290611 0.857745 0.86247  0.104098009259
 H1 0.792081 0.3572 0.36109  0.104098009259
 H1 0.790612 0.357719 0.8624  0.104098009259
 H1 0.792065 0.857193 0.36110  0.104098009259
 H1 0.790625 0.857732 0.86248  0.104098009259
 H1 0.360787 0.342058 0.4675  0.104098009259
 H1 0.360773 0.34203 0.96867  0.104098009259
 H1 0.360781 0.842044 0.46759  0.104098009259
 H1 0.360762 0.842031 0.96867  0.104098009259
 H1 0.860808 0.342058 0.46758  0.104098009259
 H1 0.860759 0.342003 0.96869  0.104098009259
 H1 0.860787 0.842044 0.46759  0.104098009259
 H1 0.860772 0.842015 0.96868  0.104098009259
 H1 0.353958 0.484876 0.09073  0.104098009259
 H1 0.353079 0.484665 0.59136  0.104098009259
 H1 0.353959 0.984884 0.09074  0.104098009259
 H1 0.353073 0.984678 0.59136  0.104098009259
 H1 0.853971 0.48488 0.0907  0.104098009259
 H1 0.853087 0.484671 0.59136  0.104098009259
 H1 0.853972 0.984885 0.09073  0.104098009259
 H1 0.853093 0.984674 0.59136  0.104098009259
 H1 0.505002 0.203049 0.33760  0.104098009259
 H1 0.502413 0.203986 0.83724  0.104098009259
 H1 0.505008 0.70306 0.33760  0.104098009259
 H1 0.502405 0.703996 0.8372  0.104098009259
 H1 0.0 0.203046 0.3376  0.104098009259
 H1 0.0 0.204015 0.83722  0.104098009259
 H1 0.0 0.703065 0.33760  0.104098009259
 H1 0.0 0.704002 0.83723  0.104098009259
 H1 0.168643 0.39742 0.02420  0.104098009259
 H1 0.167174 0.398506 0.5239  0.104098009259
 H1 0.168643 0.897431 0.02420  0.104098009259
 H1 0.167168 0.898521 0.52394  0.104098009259
 H1 0.668658 0.397422 0.02420  0.104098009259
 H1 0.667182 0.39851 0.5239  0.104098009259
 H1 0.668658 0.897432 0.02419  0.104098009259
 H1 0.667187 0.898519 0.52394  0.104098009259
 H1 0.082695 0.179519 0.44305  0.104098009259
 H1 0.081529 0.180034 0.94225  0.104098009259
 H1 0.082695 0.679539 0.44304  0.104098009259
 H1 0.081523 0.680014 0.94227  0.104098009259
 H1 0.582707 0.179525 0.44305  0.104098009259
 H1 0.581535 0.179999 0.94227  0.104098009259
 H1 0.582712 0.679532 0.44305  0.104098009259
 H1 0.581525 0.680005 0.94227  0.104098009259
 C1 0.228718 0.134769 0.36643  0.662939259259
 C1 0.226241 0.135689 0.86688  0.662939259259
 C1 0.228742 0.634761 0.36643  0.662939259259
 C1 0.226256 0.635686 0.86687  0.662939259259
 C1 0.728738 0.134766 0.36643  0.662939259259
 C1 0.726261 0.135685 0.86688  0.662939259259
 C1 0.728736 0.634775 0.36643  0.662939259259
 C1 0.726275 0.635683 0.86687  0.662939259259
 C2 0.238448 0.065519 0.43568  -0.0525924074074
 C2 0.23713 0.065987 0.9359  -0.0525924074074
 C2 0.238426 0.565541 0.43569  -0.0525924074074
 C2 0.237099 0.566013 0.93593  -0.0525924074074
 C2 0.738467 0.065516 0.43568  -0.0525924074074
 C2 0.737124 0.066 0.93593  -0.0525924074074
 C2 0.738457 0.565531 0.43568  -0.0525924074074
 C2 0.737113 0.566015 0.93593  -0.0525924074074
 C3 0.191819 0.008153 0.4489  -0.0995990740741
 C3 0.191331 0.008024 0.94930  -0.0995990740741
 C3 0.191844 0.508144 0.44894  -0.0995990740741
 C3 0.191352 0.508017 0.94929  -0.0995990740741
 C3 0.691836 0.008152 0.4489  -0.0995990740741
 C3 0.691357 0.008017 0.94929  -0.0995990740741
 C3 0.691837 0.508159 0.44894  -0.0995990740741
 C3 0.691368 0.508018 0.94929  -0.0995990740741
 C3 0.296651 0.056728 0.48729  -0.0995990740741
 C3 0.295846 0.057317 0.98717  -0.0995990740741
 C3 0.296676 0.556722 0.48728  -0.0995990740741
 C3 0.295867 0.557315 0.98715  -0.0995990740741
 C3 0.796669 0.056725 0.48729  -0.0995990740741
 C3 0.795872 0.057311 0.98716  -0.0995990740741
 C3 0.796669 0.556736 0.4872  -0.0995990740741
 C3 0.795881 0.557316 0.98715  -0.0995990740741
 C1 0.373392 0.137767 0.24243  0.662939259259
 C1 0.371127 0.138981 0.74323  0.662939259259
 C1 0.373393 0.637769 0.24244  0.662939259259
 C1 0.371113 0.638997 0.74322  0.662939259259
 C1 0.873409 0.137761 0.24245  0.662939259259
 C1 0.871132 0.138992 0.7432  0.662939259259
 C1 0.873405 0.637773 0.24244  0.662939259259
 C1 0.87114 0.638993 0.74322  0.662939259259
 C3 0.027091 0.054344 0.26545  -0.0995990740741
 C3 0.024732 0.055627 0.76604  -0.0995990740741
 C3 0.027088 0.554358 0.26544  -0.0995990740741
 C3 0.02474 0.555632 0.76605  -0.0995990740741
 C3 0.527104 0.054352 0.26543  -0.0995990740741
 C3 0.524754 0.055617 0.7660  -0.0995990740741
 C3 0.527106 0.554358 0.26544  -0.0995990740741
 C3 0.524743 0.555636 0.76605  -0.0995990740741
 C3 0.414344 0.011027 0.23004  -0.0995990740741
 C3 0.411998 0.012294 0.73066  -0.0995990740741
 C3 0.414351 0.511031 0.23005  -0.0995990740741
 C3 0.411992 0.51231 0.73065  -0.0995990740741
 C3 0.914361 0.011019 0.23005  -0.0995990740741
 C3 0.912006 0.012305 0.73065  -0.0995990740741
 C3 0.914361 0.511033 0.2300  -0.0995990740741
 C3 0.912015 0.512309 0.73065  -0.0995990740741
 C4 0.144527 0.180545 0.1176  0.154179259259
 C4 0.143175 0.181074 0.61857  0.154179259259
 C4 0.144535 0.680553 0.1176  0.154179259259
 C4 0.14316 0.681074 0.61858  0.154179259259
 C4 0.64456 0.180559 0.11767  0.154179259259
 C4 0.643182 0.181077 0.61857  0.154179259259
 C4 0.644552 0.680565 0.1176  0.154179259259
 C4 0.643183 0.681072 0.61858  0.154179259259
 C3 0.104439 0.190524 0.05783  -0.0995990740741
 C3 0.103893 0.190755 0.55855  -0.0995990740741
 C3 0.104447 0.69053 0.05783  -0.0995990740741
 C3 0.103876 0.690751 0.55856  -0.0995990740741
 C3 0.604473 0.190539 0.05782  -0.0995990740741
 C3 0.603902 0.190759 0.55855  -0.0995990740741
 C3 0.604463 0.690542 0.05782  -0.0995990740741
 C3 0.603899 0.69075 0.55856  -0.0995990740741
 C2 0.021808 0.242533 0.03264  -0.0525924074074
 C2 0.02136 0.242713 0.53275  -0.0525924074074
 C2 0.02181 0.742529 0.03264  -0.0525924074074
 C2 0.021349 0.742717 0.53275  -0.0525924074074
 C2 0.521832 0.24253 0.03264  -0.0525924074074
 C2 0.521369 0.242717 0.53274  -0.0525924074074
 C2 0.521822 0.742534 0.03264  -0.0525924074074
 C2 0.521369 0.742713 0.53275  -0.0525924074074
 C3 0.482792 0.279696 0.07242  -0.0995990740741
 C3 0.481578 0.280168 0.57213  -0.0995990740741
 C3 0.482783 0.779699 0.07242  -0.0995990740741
 C3 0.481582 0.780168 0.57213  -0.0995990740741
 C3 0.982807 0.279716 0.07241  -0.0995990740741
 C3 0.981597 0.280161 0.57213  -0.0995990740741
 C3 0.982805 0.779706 0.07242  -0.0995990740741
 C3 0.981591 0.780175 0.57213  -0.0995990740741
 C4 0.026711 0.266714 0.13197  0.154179259259
 C4 0.024719 0.267448 0.63191  0.154179259259
 C4 0.026709 0.766708 0.13198  0.154179259259
 C4 0.024712 0.767465 0.63191  0.154179259259
 C4 0.526724 0.266697 0.13198  0.154179259259
 C4 0.524727 0.267454 0.63191  0.154179259259
 C4 0.526718 0.766703 0.13198  0.154179259259
 C4 0.524733 0.767458 0.63191  0.154179259259
 C2 0.439651 0.066671 0.24562  -0.0525924074074
 C2 0.437299 0.06792 0.74628  -0.0525924074074
 C2 0.439657 0.566683 0.24562  -0.0525924074074
 C2 0.437287 0.567929 0.74628  -0.0525924074074
 C2 0.939672 0.066679 0.24561  -0.0525924074074
 C2 0.937301 0.067916 0.74629  -0.0525924074074
 C2 0.939668 0.566684 0.24562  -0.0525924074074
 C2 0.937312 0.567926 0.74628  -0.0525924074074
 C1 0.273741 0.364285 0.13310  0.662939259259
 C1 0.271268 0.365211 0.63355  0.662939259259
 C1 0.273761 0.864279 0.13309  0.662939259259
 C1 0.271283 0.86521 0.63354  0.662939259259
 C1 0.773755 0.364288 0.13310  0.662939259259
 C1 0.771293 0.365205 0.63354  0.662939259259
 C1 0.773763 0.864288 0.13310  0.662939259259
 C1 0.771301 0.865208 0.63354  0.662939259259
 C2 0.262902 0.433956 0.06404  -0.0525924074074
 C2 0.261583 0.434429 0.56429  -0.0525924074074
 C2 0.262874 0.933981 0.06405  -0.0525924074074
 C2 0.261548 0.934461 0.56430  -0.0525924074074
 C2 0.76292 0.433956 0.06404  -0.0525924074074
 C2 0.761567 0.434449 0.564  -0.0525924074074
 C2 0.762905 0.933973 0.06404  -0.0525924074074
 C2 0.761569 0.934457 0.56430  -0.0525924074074
 C3 0.308648 0.491953 0.05068  -0.0995990740741
 C3 0.308165 0.491826 0.55103  -0.0995990740741
 C3 0.308673 0.991944 0.05068  -0.0995990740741
 C3 0.308177 0.991827 0.55103  -0.0995990740741
 C3 0.808663 0.491955 0.05068  -0.0995990740741
 C3 0.808187 0.491821 0.55103  -0.0995990740741
 C3 0.808671 0.991957 0.05068  -0.0995990740741
 C3 0.8082 0.991821 0.55103  -0.0995990740741
 C3 0.204134 0.442655 0.01282  -0.0995990740741
 C3 0.203334 0.443247 0.51269  -0.0995990740741
 C3 0.204158 0.942652 0.01281  -0.0995990740741
 C3 0.203345 0.943251 0.5126  -0.0995990740741
 C3 0.70415 0.442656 0.01282  -0.0995990740741
 C3 0.703356 0.443243 0.51269  -0.0995990740741
 C3 0.704157 0.942662 0.01281  -0.0995990740741
 C3 0.703367 0.943247 0.51268  -0.0995990740741
 C1 0.128864 0.36098 0.25674  0.662939259259
 C1 0.126614 0.362202 0.75754  0.662939259259
 C1 0.128868 0.86099 0.25674  0.662939259259
 C1 0.126604 0.862208 0.75754  0.662939259259
 C1 0.628885 0.360981 0.25674  0.662939259259
 C1 0.626621 0.362204 0.75754  0.662939259259
 C1 0.628874 0.860984 0.25675  0.662939259259
 C1 0.626628 0.862212 0.75753  0.662939259259
 C3 0.475259 0.444349 0.2339  -0.0995990740741
 C3 0.472908 0.445614 0.73453  -0.0995990740741
 C3 0.47525 0.944357 0.23392  -0.0995990740741
 C3 0.472917 0.945625 0.73453  -0.0995990740741
 C3 0.975268 0.444351 0.23391  -0.0995990740741
 C3 0.972929 0.445612 0.73453  -0.0995990740741
 C3 0.975273 0.944363 0.23391  -0.0995990740741
 C3 0.97292 0.945622 0.73453  -0.0995990740741
 C3 0.087999 0.487664 0.26931  -0.0995990740741
 C3 0.085651 0.488947 0.76992  -0.0995990740741
 C3 0.088006 0.987675 0.26931  -0.0995990740741
 C3 0.085643 0.988956 0.76993  -0.0995990740741
 C3 0.588017 0.487664 0.26931  -0.0995990740741
 C3 0.585655 0.488952 0.76992  -0.0995990740741
 C3 0.588014 0.98767 0.26931  -0.0995990740741
 C3 0.58567 0.988961 0.76991  -0.0995990740741
 C4 0.356834 0.318919 0.3813  0.154179259259
 C4 0.355474 0.319401 0.8823  0.154179259259
 C4 0.356833 0.818915 0.38139  0.154179259259
 C4 0.355465 0.819407 0.88231  0.154179259259
 C4 0.856854 0.318919 0.38139  0.154179259259
 C4 0.855471 0.319391 0.88231  0.154179259259
 C4 0.856841 0.818916 0.38139  0.154179259259
 C4 0.855481 0.819397 0.88231  0.154179259259
 C3 0.396121 0.309245 0.44140  -0.0995990740741
 C3 0.395567 0.309426 0.9421  -0.0995990740741
 C3 0.396117 0.809237 0.44141  -0.0995990740741
 C3 0.395556 0.80943 0.94215  -0.0995990740741
 C3 0.89614 0.309243 0.4414  -0.0995990740741
 C3 0.895562 0.309415 0.94215  -0.0995990740741
 C3 0.896124 0.809237 0.44141  -0.0995990740741
 C3 0.895571 0.80942 0.94215  -0.0995990740741
 C2 0.478648 0.257279 0.46721  -0.0525924074074
 C2 0.478206 0.257432 0.96733  -0.0525924074074
 C2 0.478647 0.757275 0.46722  -0.0525924074074
 C2 0.478196 0.757435 0.96733  -0.0525924074074
 C2 0.978667 0.257276 0.46722  -0.0525924074074
 C2 0.978211 0.257435 0.96733  -0.0525924074074
 C2 0.978657 0.757279 0.46722  -0.0525924074074
 C2 0.978214 0.757431 0.96734  -0.0525924074074
 C3 0.018422 0.219814 0.42784  -0.0995990740741
 C3 0.017229 0.220286 0.92754  -0.0995990740741
 C3 0.018417 0.719826 0.4278  -0.0995990740741
 C3 0.017228 0.720274 0.92755  -0.0995990740741
 C3 0.518433 0.219819 0.42783  -0.0995990740741
 C3 0.517243 0.220266 0.92755  -0.0995990740741
 C3 0.518435 0.719821 0.42784  -0.0995990740741
 C3 0.517234 0.720271 0.92755  -0.0995990740741
 C4 0.47528 0.232525 0.36806  0.154179259259
 C4 0.473306 0.233259 0.86799  0.154179259259
 C4 0.475284 0.732532 0.36806  0.154179259259
 C4 0.473297 0.733268 0.86799  0.154179259259
 C4 0.975298 0.232523 0.36806  0.154179259259
 C4 0.973319 0.233278 0.86798  0.154179259259
 C4 0.975294 0.732537 0.3680  0.154179259259
 C4 0.973321 0.733269 0.86799  0.154179259259
 C2 0.062696 0.432047 0.25369  -0.0525924074074
 C2 0.06035 0.433294 0.75435  -0.0525924074074
 C2 0.0627 0.932053 0.25369  -0.0525924074074
 C2 0.060344 0.933309 0.75434  -0.0525924074074
 C2 0.562715 0.432047 0.25369  -0.0525924074074
 C2 0.560357 0.433298 0.75435  -0.0525924074074
 C2 0.56271 0.932061 0.25368  -0.0525924074074
 C2 0.560364 0.933297 0.75436  -0.0525924074074
 N1 0.107164 0.218638 0.15415  -0.289000740741
 N1 0.105107 0.219411 0.65468  -0.289000740741
 N1 0.107168 0.718641 0.15416  -0.289000740741
 N1 0.105097 0.719421 0.65468  -0.289000740741
 N1 0.607186 0.218636 0.15415  -0.289000740741
 N1 0.605115 0.219416 0.65467  -0.289000740741
 N1 0.60718 0.718643 0.15415  -0.289000740741
 N1 0.605119 0.719417 0.65468  -0.289000740741
 N1 0.394895 0.280569 0.34529  -0.289000740741
 N1 0.392844 0.281321 0.84582  -0.289000740741
 N1 0.394896 0.780572 0.34529  -0.289000740741
 N1 0.392836 0.78133 0.84582  -0.289000740741
 N1 0.894913 0.280567 0.34529  -0.289000740741
 N1 0.89285 0.281326 0.84582  -0.289000740741
 N1 0.894905 0.780574 0.34529  -0.289000740741
 N1 0.892857 0.781327 0.84582  -0.289000740741
 O1 0.173025 0.141669 0.32169  -0.588284490741
 O1 0.170525 0.142355 0.82226  -0.588284490741
 O1 0.173025 0.641678 0.32169  -0.588284490741
 O1 0.170516 0.642368 0.82226  -0.588284490741
 O1 0.673042 0.141667 0.32169  -0.588284490741
 O1 0.670533 0.14236 0.8222  -0.588284490741
 O1 0.673039 0.641679 0.3216  -0.588284490741
 O1 0.670536 0.642365 0.8222  -0.588284490741
 O1 0.277578 0.180818 0.35756  -0.588284490741
 O1 0.274321 0.18237 0.85803  -0.588284490741
 O1 0.277577 0.680829 0.35756  -0.588284490741
 O1 0.274314 0.682383 0.85803  -0.588284490741
 O1 0.777594 0.180818 0.35756  -0.588284490741
 O1 0.774329 0.182376 0.85803  -0.588284490741
 O1 0.777592 0.680827 0.35756  -0.588284490741
 O1 0.774331 0.682382 0.85803  -0.588284490741
 O1 0.295213 0.145047 0.22414  -0.588284490741
 O1 0.292908 0.146447 0.7248  -0.588284490741
 O1 0.295217 0.645053 0.22414  -0.588284490741
 O1 0.292893 0.646454 0.72488  -0.588284490741
 O1 0.795233 0.145049 0.22414  -0.588284490741
 O1 0.792911 0.146448 0.72488  -0.588284490741
 O1 0.795228 0.645056 0.22414  -0.588284490741
 O1 0.79292 0.646454 0.72488  -0.588284490741
 O1 0.400052 0.185076 0.25890  -0.588284490741
 O1 0.397897 0.1861 0.75988  -0.588284490741
 O1 0.400054 0.685085 0.25890  -0.588284490741
 O1 0.397881 0.686112 0.75988  -0.588284490741
 O1 0.900071 0.185077 0.2589  -0.588284490741
 O1 0.8979 0.186102 0.75988  -0.588284490741
 O1 0.900066 0.685087 0.25890  -0.588284490741
 O1 0.897909 0.686108 0.75988  -0.588284490741
 O1 0.329474 0.357605 0.17772  -0.588284490741
 O1 0.326981 0.358299 0.67829  -0.588284490741
 O1 0.329473 0.857614 0.17772  -0.588284490741
 O1 0.326973 0.858317 0.67829  -0.588284490741
 O1 0.829492 0.357606 0.17772  -0.588284490741
 O1 0.826989 0.358308 0.67829  -0.588284490741
 O1 0.829486 0.857615 0.17772  -0.588284490741
 O1 0.826993 0.858312 0.67829  -0.588284490741
 O1 0.225681 0.317589 0.14194  -0.588284490741
 O1 0.22244 0.319137 0.64242  -0.588284490741
 O1 0.225681 0.817598 0.14194  -0.588284490741
 O1 0.222433 0.819153 0.64242  -0.588284490741
 O1 0.7257 0.317588 0.14194  -0.588284490741
 O1 0.722448 0.319144 0.64242  -0.588284490741
 O1 0.725694 0.817599 0.14194  -0.588284490741
 O1 0.722451 0.81915 0.64242  -0.588284490741
 O1 0.207084 0.353515 0.27509  -0.588284490741
 O1 0.20479 0.354916 0.77584  -0.588284490741
 O1 0.207087 0.853521 0.27509  -0.588284490741
 O1 0.204782 0.854926 0.7758  -0.588284490741
 O1 0.707103 0.353515 0.27509  -0.588284490741
 O1 0.704797 0.35492 0.7758  -0.588284490741
 O1 0.707095 0.853522 0.2750  -0.588284490741
 O1 0.704804 0.854922 0.77584  -0.588284490741
 O1 0.102092 0.313864 0.2400  -0.588284490741
 O1 0.099953 0.314888 0.74107  -0.588284490741
 O1 0.102095 0.813871 0.24009  -0.588284490741
 O1 0.099945 0.814901 0.74107  -0.588284490741
 O1 0.602112 0.313863 0.24009  -0.588284490741
 O1 0.599961 0.314891 0.74107  -0.588284490741
 O1 0.602102 0.813874 0.24008  -0.588284490741
 O1 0.599966 0.814896 0.74107  -0.588284490741
