#======================================================================

# CRYSTAL DATA

#----------------------------------------------------------------------

data_VESTA_phase_1


_pd_phase_name                         MOF
_cell_length_a                         18.40700
_cell_length_b                         18.41600
_cell_length_c                         18.41100
_cell_angle_alpha                      60.32800
_cell_angle_beta                       60.25100
_cell_angle_gamma                      60.28300
_symmetry_space_group_name_H-M         "P 1"
_symmetry_Int_Tables_number            1

loop_
_symmetry_equiv_pos_as_xyz
   "x, y, z"

loop_
   _atom_site_label
   _atom_site_fract_x
   _atom_site_fract_y
   _atom_site_fract_z
 _atom_site_charge
 Zn1 0.294041 0.293602 0.29378  1.10362962264
 Zn1 0.29315 0.293229 0.11968  1.10362962264
 Zn1 0.293194 0.119783 0.29325  1.10362962264
 Zn1 0.119583 0.293142 0.2931  1.10362962264
 Zn1 0.705979 0.706393 0.70621  1.10362962264
 Zn1 0.706869 0.706766 0.88031  1.10362962264
 Zn1 0.880436 0.706853 0.70687  1.10362962264
 Zn1 0.706826 0.880212 0.70674  1.10362962264
 H1 0.164308 0.452477 0.45252  0.115869622642
 H1 0.451773 0.164127 0.93200  0.115869622642
 H1 0.451651 0.932157 0.16422  0.115869622642
 H1 0.93224 0.451252 0.4512  0.115869622642
 H1 0.164345 0.45166 0.93195  0.115869622642
 H1 0.45119 0.932394 0.45116  0.115869622642
 H1 0.452731 0.164101 0.4526  0.115869622642
 H1 0.931796 0.451778 0.16422  0.115869622642
 H1 0.164345 0.932124 0.45159  0.115869622642
 H1 0.452668 0.452551 0.16419  0.115869622642
 H1 0.451254 0.451204 0.93230  0.115869622642
 H1 0.931805 0.164124 0.45184  0.115869622642
 H1 0.547288 0.835895 0.54732  0.115869622642
 H1 0.835675 0.548335 0.06804  0.115869622642
 H1 0.068224 0.548217 0.83577  0.115869622642
 H1 0.548829 0.067602 0.54883  0.115869622642
 H1 0.548244 0.835867 0.06799  0.115869622642
 H1 0.067778 0.54874 0.54872  0.115869622642
 H1 0.83571 0.547515 0.54747  0.115869622642
 H1 0.548366 0.067838 0.83577  0.115869622642
 H1 0.068214 0.835871 0.54815  0.115869622642
 H1 0.547352 0.547443 0.83580  0.115869622642
 H1 0.548766 0.548791 0.06769  0.115869622642
 H1 0.835675 0.067871 0.54840  0.115869622642
 C1 0.092329 0.473668 0.47370  -0.0559512106918
 C1 0.473292 0.092233 0.96100  -0.0559512106918
 C1 0.473227 0.961079 0.09228  -0.0559512106918
 C1 0.96117 0.472984 0.4730  -0.0559512106918
 C1 0.09235 0.473223 0.96098  -0.0559512106918
 C1 0.47296 0.961246 0.47293  -0.0559512106918
 C1 0.473822 0.092215 0.47377  -0.0559512106918
 C1 0.960909 0.473282 0.09228  -0.0559512106918
 C1 0.092349 0.961071 0.47318  -0.0559512106918
 C1 0.473789 0.473708 0.09226  -0.0559512106918
 C1 0.472995 0.47296 0.96120  -0.0559512106918
 C1 0.96091 0.092229 0.47331  -0.0559512106918
 C1 0.526199 0.907781 0.5262  -0.0559512106918
 C1 0.90767 0.52677 0.0390  -0.0559512106918
 C1 0.039111 0.526711 0.90771  -0.0559512106918
 C1 0.527061 0.03875 0.52706  -0.0559512106918
 C1 0.526721 0.907762 0.03899  -0.0559512106918
 C1 0.038849 0.527004 0.52699  -0.0559512106918
 C1 0.90769 0.526319 0.52629  -0.0559512106918
 C1 0.526787 0.038916 0.90771  -0.0559512106918
 C1 0.03911 0.907766 0.52667  -0.0559512106918
 C1 0.526234 0.526284 0.90773  -0.0559512106918
 C1 0.527027 0.527032 0.03879  -0.0559512106918
 C1 0.90767 0.038924 0.5268  -0.0559512106918
 C2 0.111298 0.388925 0.38901  0.671912955975
 C3 0.053831 0.446307 0.44635  -0.115020377358
 C2 0.388631 0.110974 0.11092  0.671912955975
 C3 0.446153 0.053642 0.0536  -0.115020377358
 C2 0.110859 0.388595 0.11089  0.671912955975
 C3 0.053579 0.446133 0.05360  -0.115020377358
 C2 0.389127 0.111255 0.38903  0.671912955975
 C3 0.44642 0.053823 0.44635  -0.115020377358
 C2 0.110863 0.110952 0.38861  0.671912955975
 C3 0.053576 0.053641 0.44614  -0.115020377358
 C2 0.389126 0.388945 0.11126  0.671912955975
 C3 0.446426 0.446302 0.05381  -0.115020377358
 C2 0.610895 0.888741 0.61096  0.671912955975
 C3 0.553596 0.946173 0.55364  -0.115020377358
 C2 0.889161 0.611401 0.88910  0.671912955975
 C3 0.946441 0.553864 0.9463  -0.115020377358
 C2 0.611381 0.889021 0.88907  0.671912955975
 C3 0.553872 0.946352 0.9463  -0.115020377358
 C2 0.88872 0.611063 0.61098  0.671912955975
 C3 0.946187 0.553693 0.55363  -0.115020377358
 C2 0.889157 0.889042 0.61138  0.671912955975
 C3 0.946444 0.946353 0.55385  -0.115020377358
 C2 0.610896 0.611048 0.88873  0.671912955975
 C3 0.55359 0.553696 0.94617  -0.115020377358
 O1 0.250049 0.250059 0.25005  -1.26205037736
 O1 0.74997 0.749936 0.74994  -1.26205037736
 O2 0.195093 0.366988 0.36721  -0.601070377358
 O2 0.366355 0.19463 0.07141  -0.601070377358
 O2 0.366465 0.071508 0.19463  -0.601070377358
 O2 0.071713 0.366641 0.36663  -0.601070377358
 O2 0.194645 0.366456 0.07134  -0.601070377358
 O2 0.366676 0.071751 0.36673  -0.601070377358
 O2 0.367418 0.194952 0.36711  -0.601070377358
 O2 0.071266 0.366282 0.19462  -0.601070377358
 O2 0.194641 0.071462 0.36653  -0.601070377358
 O2 0.367469 0.366926 0.19500  -0.601070377358
 O2 0.366654 0.366708 0.07171  -0.601070377358
 O2 0.071285 0.19462 0.36625  -0.601070377358
 O2 0.632602 0.805044 0.63288  -0.601070377358
 O2 0.805374 0.633538 0.92865  -0.601070377358
 O2 0.928754 0.633711 0.80537  -0.601070377358
 O2 0.633346 0.928245 0.63326  -0.601070377358
 O2 0.633662 0.805364 0.92858  -0.601070377358
 O2 0.928306 0.633349 0.63336  -0.601070377358
 O2 0.804926 0.633005 0.63278  -0.601070377358
 O2 0.63355 0.928487 0.80536  -0.601070377358
 O2 0.928735 0.805374 0.63373  -0.601070377358
 O2 0.632552 0.633068 0.80499  -0.601070377358
 O2 0.633367 0.633285 0.92828  -0.601070377358
 O2 0.805378 0.928533 0.63346  -0.601070377358
