#======================================================================

# CRYSTAL DATA

#----------------------------------------------------------------------

data_VESTA_phase_1


_pd_phase_name                         MOF
_cell_length_a                         13.94100
_cell_length_b                         20.67700
_cell_length_c                         22.21400
_cell_angle_alpha                      89.99500
_cell_angle_beta                       90.51100
_cell_angle_gamma                      101.28400
_symmetry_space_group_name_H-M         "P 1"
_symmetry_Int_Tables_number            1

loop_
_symmetry_equiv_pos_as_xyz
   "x, y, z"

loop_
   _atom_site_label
   _atom_site_fract_x
   _atom_site_fract_y
   _atom_site_fract_z
 _atom_site_charge
 Zn1 0.667016 0.341862 0.98955  0.947070263158
 Zn1 0.874964 0.367222 0.01032  0.947070263158
 Zn1 0.667056 0.84199 0.51029  0.947070263158
 Zn1 0.874763 0.867166 0.49195  0.947070263158
 Zn1 0.33297 0.158022 0.48970  0.947070263158
 Zn1 0.125262 0.132848 0.50803  0.947070263158
 Zn1 0.333018 0.658158 0.01043  0.947070263158
 Zn1 0.125068 0.632789 0.98966  0.947070263158
 H1 0.001368 0.282537 0.06389  0.111659263158
 H1 0.636763 0.699924 0.66353  0.111659263158
 H1 0.988001 0.615128 0.80534  0.111659263158
 H1 0.513991 0.313692 0.08098  0.111659263158
 H1 0.176712 0.271357 0.06089  0.111659263158
 H1 0.965998 0.529134 0.88417  0.111659263158
 H1 0.586164 0.659391 0.40449  0.111659263158
 H1 0.564212 0.569666 0.32722  0.111659263158
 H1 0.946988 0.76453 0.64074  0.111659263158
 H1 0.601112 0.422097 0.15985  0.111659263158
 H1 0.896282 0.532427 0.14616  0.111659263158
 H1 0.340768 0.323107 0.09423  0.111659263158
 H1 0.981672 0.69441 0.72491  0.111659263158
 H1 0.878402 0.734411 0.34380  0.111659263158
 H1 0.568778 0.491203 0.24534  0.111659263158
 H1 0.652866 0.502297 0.86784  0.111659263158
 H1 0.05755 0.454079 0.96279  0.111659263158
 H1 0.338781 0.385192 0.90792  0.111659263158
 H1 0.513927 0.374038 0.90307  0.111659263158
 H1 0.234374 0.450229 0.95550  0.111659263158
 H1 0.998116 0.781011 0.43887  0.111659263158
 H1 0.636534 0.198866 0.83646  0.111659263158
 H1 0.988263 0.118466 0.69584  0.111659263158
 H1 0.511412 0.813816 0.41832  0.111659263158
 H1 0.173772 0.770068 0.4407  0.111659263158
 H1 0.967184 0.031791 0.61728  0.111659263158
 H1 0.587933 0.159652 0.09413  0.111659263158
 H1 0.565295 0.070084 0.17134  0.111659263158
 H1 0.946612 0.267007 0.86021  0.111659263158
 H1 0.60049 0.922385 0.33906  0.111659263158
 H1 0.895979 0.032131 0.35661  0.111659263158
 H1 0.337483 0.822768 0.40534  0.111659263158
 H1 0.981411 0.197699 0.77591  0.111659263158
 H1 0.880153 0.234223 0.15836  0.111659263158
 H1 0.568945 0.991728 0.25323  0.111659263158
 H1 0.654013 0.00111 0.63248  0.111659263158
 H1 0.059524 0.955319 0.53644  0.111659263158
 H1 0.341667 0.886209 0.59144  0.111659263158
 H1 0.517041 0.875097 0.5961  0.111659263158
 H1 0.236769 0.95177 0.5424  0.111659263158
 H1 0.0 0.219014 0.56110  0.111659263158
 H1 0.36349 0.801149 0.16353  0.111659263158
 H1 0.011765 0.881557 0.30414  0.111659263158
 H1 0.488623 0.186212 0.58166  0.111659263158
 H1 0.826265 0.229965 0.55923  0.111659263158
 H1 0.032848 0.96823 0.38270  0.111659263158
 H1 0.4121 0.84038 0.90587  0.111659263158
 H1 0.434729 0.929954 0.82866  0.111659263158
 H1 0.053411 0.733018 0.13977  0.111659263158
 H1 0.399535 0.077646 0.66094  0.111659263158
 H1 0.104059 0.967882 0.6433  0.111659263158
 H1 0.662554 0.177264 0.59464  0.111659263158
 H1 0.018615 0.802326 0.2240  0.111659263158
 H1 0.1199 0.765783 0.84162  0.111659263158
 H1 0.43108 0.008309 0.74677  0.111659263158
 H1 0.346018 0.998903 0.3675  0.111659263158
 H1 0.940495 0.044691 0.46356  0.111659263158
 H1 0.658358 0.113808 0.40855  0.111659263158
 H1 0.482981 0.124917 0.40382  0.111659263158
 H1 0.763252 0.048246 0.45751  0.111659263158
 H1 0.998685 0.717488 0.93612  0.111659263158
 H1 0.363301 0.300076 0.33648  0.111659263158
 H1 0.012116 0.384911 0.19467  0.111659263158
 H1 0.486061 0.686344 0.91901  0.111659263158
 H1 0.823342 0.728673 0.93911  0.111659263158
 H1 0.034107 0.470901 0.11584  0.111659263158
 H1 0.413873 0.340609 0.59551  0.111659263158
 H1 0.435832 0.430331 0.67278  0.111659263158
 H1 0.053065 0.235515 0.35925  0.111659263158
 H1 0.39893 0.577906 0.84015  0.111659263158
 H1 0.103747 0.467592 0.85382  0.111659263158
 H1 0.659285 0.676924 0.9057  0.111659263158
 H1 0.01842 0.305655 0.27508  0.111659263158
 H1 0.121621 0.265609 0.65618  0.111659263158
 H1 0.431271 0.508797 0.75466  0.111659263158
 H1 0.347241 0.497744 0.13216  0.111659263158
 H1 0.94248 0.54593 0.03719  0.111659263158
 H1 0.661249 0.614818 0.09207  0.111659263158
 H1 0.486103 0.625974 0.09691  0.111659263158
 H1 0.765656 0.549783 0.04448  0.111659263158
 C1 0.796852 0.456064 0.92661  0.668345263158
 C2 0.324043 0.354316 0.00161  -0.0089827368421
 C2 0.832135 0.607964 0.79096  -0.0089827368421
 C3 0.738968 0.57567 0.80987  -0.232824736842
 C2 0.828143 0.655074 0.74195  -0.0089827368421
 C2 0.22037 0.35968 0.00673  -0.0089827368421
 C2 0.732968 0.701835 0.37881  -0.0089827368421
 C4 0.056143 0.318431 0.04059  0.175805263158
 C2 0.70972 0.601689 0.29126  -0.0089827368421
 C3 0.732036 0.658136 0.72387  -0.232824736842
 C5 0.711314 0.697908 0.67723  -0.0722128618421
 C2 0.790517 0.735891 0.64656  -0.0089827368421
 C5 0.914478 0.591127 0.81847  -0.0722128618421
 C1 0.745196 0.755626 0.42535  0.668345263158
 C3 0.797051 0.648699 0.29706  -0.232824736842
 C4 0.47188 0.328623 0.04375  0.175805263158
 C3 0.804334 0.564163 0.21362  -0.232824736842
 C5 0.153651 0.312888 0.03881  -0.0722128618421
 C5 0.902107 0.542445 0.8627  -0.0722128618421
 C1 0.766434 0.430747 0.09489  0.668345263158
 C5 0.645003 0.655487 0.37361  -0.0722128618421
 C5 0.632827 0.605442 0.3303  -0.0722128618421
 C2 0.808497 0.510054 0.88041  -0.0089827368421
 C2 0.750086 0.472674 0.14764  -0.0089827368421
 C2 0.713496 0.55372 0.24291  -0.0089827368421
 C5 0.886743 0.733996 0.66443  -0.0722128618421
 C5 0.658439 0.462125 0.17581  -0.0722128618421
 C5 0.824902 0.524212 0.16743  -0.0722128618421
 C5 0.374617 0.333405 0.05041  -0.0722128618421
 C5 0.906103 0.694369 0.71199  -0.0722128618421
 C5 0.810427 0.698333 0.33977  -0.0722128618421
 C5 0.640049 0.501416 0.22376  -0.0722128618421
 C1 0.77371 0.778273 0.59410  0.668345263158
 C5 0.725258 0.527437 0.85388  -0.0722128618421
 C4 0.086701 0.414091 0.98329  0.175805263158
 C5 0.374882 0.369537 0.94751  -0.0722128618421
 C4 0.471947 0.362997 0.94423  0.175805263158
 C5 0.185132 0.411424 0.97916  -0.0722128618421
 C1 0.798647 0.956434 0.57457  0.668345263158
 C2 0.323931 0.854587 0.49788  -0.0089827368421
 C2 0.832349 0.109282 0.70963  -0.0089827368421
 C3 0.739383 0.075752 0.69051  -0.232824736842
 C2 0.828058 0.156425 0.75851  -0.0089827368421
 C2 0.220053 0.859827 0.49307  -0.0089827368421
 C2 0.734732 0.201848 0.12157  -0.0089827368421
 C4 0.054125 0.817514 0.46115  0.175805263158
 C2 0.710693 0.101928 0.20909  -0.0089827368421
 C3 0.731927 0.158351 0.77628  -0.232824736842
 C5 0.711103 0.197753 0.82296  -0.0722128618421
 C2 0.790217 0.236578 0.85395  -0.0089827368421
 C5 0.914944 0.09347 0.68246  -0.0722128618421
 C1 0.746851 0.255528 0.07505  0.668345263158
 C3 0.798239 0.148768 0.20434  -0.232824736842
 C4 0.470451 0.828822 0.45560  0.175805263158
 C3 0.804466 0.064264 0.28812  -0.232824736842
 C5 0.151772 0.812143 0.46226  -0.0722128618421
 C5 0.903132 0.044427 0.63840  -0.0722128618421
 C1 0.765414 0.930657 0.4062  0.668345263158
 C5 0.646607 0.155651 0.12576  -0.0722128618421
 C5 0.634034 0.10573 0.16895  -0.0722128618421
 C2 0.80975 0.010791 0.62051  -0.0089827368421
 C2 0.749556 0.972679 0.35325  -0.0089827368421
 C2 0.713891 0.053957 0.25756  -0.0089827368421
 C5 0.886426 0.235875 0.83628  -0.0722128618421
 C5 0.658093 0.962299 0.32384  -0.0722128618421
 C5 0.824694 0.02408 0.33444  -0.0722128618421
 C5 0.372913 0.833461 0.44905  -0.0722128618421
 C5 0.905872 0.196643 0.78866  -0.0722128618421
 C5 0.812037 0.198266 0.16160  -0.0722128618421
 C5 0.640135 0.001754 0.27571  -0.0722128618421
 C1 0.773386 0.278438 0.90662  0.668345263158
 C5 0.726214 0.027188 0.64666  -0.0722128618421
 C4 0.08759 0.914769 0.51647  0.175805263158
 C5 0.37655 0.870311 0.55186  -0.0722128618421
 C4 0.473694 0.863783 0.55508  0.175805263158
 C5 0.186256 0.912313 0.51991  -0.0722128618421
 C1 0.201387 0.04358 0.42542  0.668345263158
 C2 0.6761 0.145438 0.50210  -0.0089827368421
 C2 0.16768 0.890736 0.29035  -0.0089827368421
 C3 0.260647 0.924264 0.30947  -0.232824736842
 C2 0.171969 0.843594 0.24147  -0.0089827368421
 C2 0.779977 0.140197 0.50691  -0.0089827368421
 C2 0.265312 0.798169 0.87842  -0.0089827368421
 C4 0.945907 0.18251 0.5388  0.175805263158
 C2 0.289343 0.898097 0.79090  -0.0089827368421
 C3 0.2681 0.841666 0.2237  -0.232824736842
 C5 0.288922 0.802263 0.17702  -0.0722128618421
 C2 0.209806 0.763443 0.14603  -0.0089827368421
 C5 0.085085 0.906551 0.31752  -0.0722128618421
 C1 0.253197 0.744486 0.92493  0.668345263158
 C3 0.201803 0.851248 0.79565  -0.232824736842
 C4 0.529581 0.171204 0.54438  0.175805263158
 C3 0.195571 0.935757 0.71187  -0.232824736842
 C5 0.848262 0.187884 0.53772  -0.0722128618421
 C5 0.096898 0.955592 0.36158  -0.0722128618421
 C1 0.234619 0.06936 0.59377  0.668345263158
 C5 0.353429 0.844375 0.87424  -0.0722128618421
 C5 0.365997 0.894301 0.83105  -0.0722128618421
 C2 0.190281 0.989226 0.37947  -0.0089827368421
 C2 0.250475 0.027343 0.64674  -0.0089827368421
 C2 0.286142 0.94607 0.74244  -0.0089827368421
 C5 0.113598 0.764147 0.16370  -0.0722128618421
 C5 0.341934 0.03773 0.6761  -0.0722128618421
 C5 0.175341 0.975938 0.66555  -0.0722128618421
 C5 0.627121 0.166567 0.55093  -0.0722128618421
 C5 0.094154 0.80338 0.21132  -0.0722128618421
 C5 0.18801 0.801746 0.83838  -0.0722128618421
 C5 0.359893 0.998277 0.72429  -0.0722128618421
 C1 0.22664 0.721581 0.09336  0.668345263158
 C5 0.273817 0.972827 0.35333  -0.0722128618421
 C4 0.912434 0.085246 0.48352  0.175805263158
 C5 0.623477 0.129709 0.44812  -0.0722128618421
 C4 0.526332 0.136235 0.44490  0.175805263158
 C5 0.813769 0.087705 0.48008  -0.0722128618421
 C1 0.203229 0.543969 0.07339  0.668345263158
 C2 0.675999 0.645706 0.99837  -0.0089827368421
 C2 0.167982 0.392084 0.20905  -0.0089827368421
 C3 0.261152 0.424376 0.19014  -0.232824736842
 C2 0.17196 0.34497 0.2580  -0.0089827368421
 C2 0.779672 0.64034 0.9932  -0.0089827368421
 C2 0.267061 0.298175 0.62118  -0.0089827368421
 C4 0.943905 0.681592 0.95941  0.175805263158
 C2 0.290316 0.39832 0.70873  -0.0089827368421
 C3 0.26806 0.341894 0.27613  -0.232824736842
 C5 0.288758 0.30211 0.32277  -0.0722128618421
 C2 0.209539 0.264136 0.35344  -0.0089827368421
 C5 0.085635 0.408915 0.1815  -0.0722128618421
 C1 0.254828 0.244387 0.57463  0.668345263158
 C3 0.20298 0.351315 0.7029  -0.232824736842
 C4 0.528168 0.671407 0.95623  0.175805263158
 C3 0.1957 0.435853 0.78636  -0.232824736842
 C5 0.846398 0.687138 0.96119  -0.0722128618421
 C5 0.097999 0.457592 0.13726  -0.0722128618421
 C1 0.233596 0.569266 0.90510  0.668345263158
 C5 0.355032 0.344517 0.62639  -0.0722128618421
 C5 0.367212 0.39456 0.66961  -0.0722128618421
 C2 0.191606 0.489986 0.119  -0.0089827368421
 C2 0.249948 0.527338 0.85235  -0.0089827368421
 C2 0.286543 0.44629 0.75709  -0.0089827368421
 C5 0.11332 0.266045 0.33556  -0.0722128618421
 C5 0.341601 0.537882 0.82418  -0.0722128618421
 C5 0.175129 0.475804 0.83255  -0.0722128618421
 C5 0.62543 0.666622 0.94958  -0.0722128618421
 C5 0.093983 0.305683 0.28800  -0.0722128618421
 C5 0.189599 0.301683 0.66021  -0.0722128618421
 C5 0.359995 0.498589 0.7762  -0.0722128618421
 C1 0.226329 0.221744 0.40590  0.668345263158
 C5 0.274851 0.472605 0.14613  -0.0722128618421
 C4 0.913334 0.585923 0.01670  0.175805263158
 C5 0.625153 0.630479 0.05247  -0.0722128618421
 C4 0.528088 0.637021 0.0557  0.175805263158
 C5 0.814903 0.588592 0.02083  -0.0722128618421
 S1 0.645449 0.604021 0.76820  1.13644526316
 S1 0.884038 0.635664 0.24244  1.13644526316
 S1 0.645556 0.103019 0.73185  1.13644526316
 S1 0.884494 0.135772 0.2605  1.13644526316
 S1 0.354473 0.896997 0.26814  1.13644526316
 S1 0.115549 0.864245 0.73948  1.13644526316
 S1 0.354669 0.395976 0.23179  1.13644526316
 S1 0.115991 0.364353 0.75755  1.13644526316
 N1 0.022723 0.36802 0.01309  -0.302654736842
 N1 0.519976 0.342787 0.9914  -0.302654736842
 N1 0.022116 0.867784 0.4880  -0.302654736842
 N1 0.520196 0.843343 0.50781  -0.302654736842
 N1 0.977912 0.132233 0.51193  -0.302654736842
 N1 0.479833 0.156677 0.49217  -0.302654736842
 N1 0.977317 0.631997 0.9869  -0.302654736842
 N1 0.480065 0.657237 0.00851  -0.302654736842
 O1 0.670439 0.760953 0.4558  -0.596495986842
 O1 0.854463 0.433444 0.07804  -0.596495986842
 O1 0.709905 0.428853 0.9405  -0.596495986842
 O1 0.830096 0.791967 0.42995  -0.596495986842
 O1 0.875137 0.441729 0.94803  -0.596495986842
 O1 0.690419 0.396852 0.07036  -0.596495986842
 O1 0.687527 0.788938 0.58578  -0.596495986842
 O1 0.847899 0.799982 0.56184  -0.596495986842
 O2 0.970892 0.619483 0.27079  -0.555752236842
 O2 0.591495 0.641206 0.80713  -0.555752236842
 O2 0.58943 0.550748 0.73163  -0.555752236842
 O2 0.895546 0.688199 0.19748  -0.555752236842
 O1 0.671683 0.261085 0.0441  -0.596495986842
 O1 0.853293 0.933485 0.42443  -0.596495986842
 O1 0.711819 0.929165 0.55948  -0.596495986842
 O1 0.83195 0.29159 0.07093  -0.596495986842
 O1 0.877072 0.94193 0.55443  -0.596495986842
 O1 0.689118 0.896775 0.42965  -0.596495986842
 O1 0.687112 0.288868 0.91420  -0.596495986842
 O1 0.847523 0.300016 0.93976  -0.596495986842
 O2 0.971874 0.11953 0.23392  -0.555752236842
 O2 0.589266 0.138947 0.6926  -0.555752236842
 O2 0.591696 0.049563 0.76850  -0.555752236842
 O2 0.89515 0.188393 0.30544  -0.555752236842
 O1 0.328367 0.738931 0.95581  -0.596495986842
 O1 0.14674 0.06653 0.57555  -0.596495986842
 O1 0.288215 0.070846 0.4405  -0.596495986842
 O1 0.168101 0.708422 0.92905  -0.596495986842
 O1 0.122963 0.058087 0.44556  -0.596495986842
 O1 0.310916 0.10324 0.57034  -0.596495986842
 O1 0.312915 0.711156 0.08578  -0.596495986842
 O1 0.152504 0.7 0.06023  -0.596495986842
 O2 0.028166 0.880481 0.7660  -0.555752236842
 O2 0.410768 0.86107 0.30735  -0.555752236842
 O2 0.408329 0.950454 0.23148  -0.555752236842
 O2 0.104898 0.811628 0.69454  -0.555752236842
 O1 0.329584 0.23906 0.54411  -0.596495986842
 O1 0.145566 0.56657 0.92195  -0.596495986842
 O1 0.290171 0.571196 0.05949  -0.596495986842
 O1 0.169928 0.208047 0.57004  -0.596495986842
 O1 0.124932 0.558283 0.05196  -0.596495986842
 O1 0.309611 0.603158 0.92963  -0.596495986842
 O1 0.312507 0.211072 0.41421  -0.596495986842
 O1 0.152136 0.200036 0.43815  -0.596495986842
 O2 0.029137 0.380534 0.72919  -0.555752236842
 O2 0.408518 0.358747 0.19284  -0.555752236842
 O2 0.410817 0.449216 0.26834  -0.555752236842
 O2 0.10448 0.31182 0.80251  -0.555752236842
