#======================================================================

# CRYSTAL DATA

#----------------------------------------------------------------------

data_VESTA_phase_1


_pd_phase_name                         MOF
_cell_length_a                         23.06800
_cell_length_b                         16.55200
_cell_length_c                         16.55200
_cell_angle_alpha                      90.01100
_cell_angle_beta                       89.99900
_cell_angle_gamma                      90.00200
_symmetry_space_group_name_H-M         "P 1"
_symmetry_Int_Tables_number            1

loop_
_symmetry_equiv_pos_as_xyz
   "x, y, z"

loop_
   _atom_site_label
   _atom_site_fract_x
   _atom_site_fract_y
   _atom_site_fract_z
 _atom_site_charge
 Zn1 0.069878 0.378023 0.35726  1.04903045455
 Zn1 0.569879 0.378023 0.35726  1.04903045455
 Zn1 0.069874 0.621987 0.6427  1.04903045455
 Zn1 0.569875 0.621987 0.6427  1.04903045455
 Zn1 0.069874 0.64273 0.37802  1.04903045455
 Zn1 0.569875 0.64273 0.37802  1.04903045455
 Zn1 0.069877 0.357278 0.62196  1.04903045455
 Zn1 0.569878 0.357278 0.62196  1.04903045455
 Zn1 0.180125 0.121987 0.85725  1.04903045455
 Zn1 0.680125 0.121987 0.85725  1.04903045455
 Zn1 0.180127 0.878011 0.14274  1.04903045455
 Zn1 0.680127 0.878011 0.14274  1.04903045455
 Zn1 0.180119 0.857283 0.87804  1.04903045455
 Zn1 0.68012 0.857283 0.87804  1.04903045455
 Zn1 0.180122 0.142719 0.12196  1.04903045455
 Zn1 0.680122 0.142718 0.12196  1.04903045455
 Zn1 0.430121 0.621986 0.64273  1.04903045455
 Zn1 0.930122 0.621986 0.64273  1.04903045455
 Zn1 0.430125 0.37802 0.3572  1.04903045455
 Zn1 0.930126 0.37802 0.3572  1.04903045455
 Zn1 0.430125 0.357277 0.62197  1.04903045455
 Zn1 0.930126 0.357277 0.62197  1.04903045455
 Zn1 0.430122 0.642731 0.37803  1.04903045455
 Zn1 0.930123 0.642731 0.37803  1.04903045455
 Zn1 0.319874 0.87802 0.1427  1.04903045455
 Zn1 0.819875 0.87802 0.1427  1.04903045455
 Zn1 0.319872 0.121996 0.85725  1.04903045455
 Zn1 0.819873 0.121996 0.85725  1.04903045455
 Zn1 0.319881 0.142724 0.12195  1.04903045455
 Zn1 0.819882 0.142724 0.12195  1.04903045455
 Zn1 0.319878 0.85729 0.87803  1.04903045455
 Zn1 0.819879 0.857289 0.87803  1.04903045455
 H1 0.092987 0.155543 0.24534  0.0990104545455
 H1 0.592988 0.155543 0.24534  0.0990104545455
 H1 0.092938 0.844427 0.75467  0.0990104545455
 H1 0.592939 0.844428 0.75467  0.0990104545455
 H1 0.092953 0.754477 0.15554  0.0990104545455
 H1 0.592954 0.754478 0.15554  0.0990104545455
 H1 0.092979 0.245546 0.84447  0.0990104545455
 H1 0.59298 0.245546 0.84447  0.0990104545455
 H1 0.157024 0.344487 0.74545  0.0990104545455
 H1 0.657025 0.344487 0.74545  0.0990104545455
 H1 0.157041 0.655532 0.25455  0.0990104545455
 H1 0.657042 0.655531 0.25455  0.0990104545455
 H1 0.157032 0.745444 0.65556  0.0990104545455
 H1 0.657032 0.745443 0.65556  0.0990104545455
 H1 0.157041 0.254566 0.34442  0.0990104545455
 H1 0.657042 0.254566 0.34442  0.0990104545455
 H1 0.40701 0.844466 0.75465  0.0990104545455
 H1 0.90701 0.844466 0.75465  0.0990104545455
 H1 0.407059 0.155577 0.24532  0.0990104545455
 H1 0.90706 0.155577 0.24532  0.0990104545455
 H1 0.407047 0.245528 0.84445  0.0990104545455
 H1 0.907048 0.245528 0.84445  0.0990104545455
 H1 0.407022 0.754463 0.1555  0.0990104545455
 H1 0.907022 0.754463 0.15552  0.0990104545455
 H1 0.342974 0.655524 0.25454  0.0990104545455
 H1 0.842975 0.655524 0.25454  0.0990104545455
 H1 0.342957 0.34448 0.74545  0.0990104545455
 H1 0.842958 0.34448 0.74545  0.0990104545455
 H1 0.34297 0.254578 0.34443  0.0990104545455
 H1 0.842971 0.254577 0.34443  0.0990104545455
 H1 0.342961 0.745441 0.65556  0.0990104545455
 H1 0.842961 0.74544 0.6555  0.0990104545455
 H2 2e-06 0.486872 0.4022  0.436320454545
 H2 0.500003 0.486872 0.4022  0.436320454545
 H1 0.0 0.940414 0.17551  0.0990104545455
 H1 0.5 0.940414 0.17551  0.0990104545455
 H2 0.999996 0.513136 0.59774  0.436320454545
 H2 0.499997 0.513136 0.59774  0.436320454545
 H1 0.999999 0.059592 0.82448  0.0990104545455
 H1 0.499999 0.059592 0.82448  0.0990104545455
 H2 0.999998 0.597748 0.48687  0.436320454545
 H2 0.499999 0.597748 0.48687  0.436320454545
 H1 0.999998 0.824366 0.94042  0.0990104545455
 H1 0.499999 0.824367 0.94042  0.0990104545455
 H2 0.0 0.40226 0.5131  0.436320454545
 H2 0.500001 0.40226 0.5131  0.436320454545
 H1 0.0 0.175641 0.05957  0.0990104545455
 H1 0.500001 0.175641 0.05957  0.0990104545455
 H2 0.25 0.013143 0.90222  0.436320454545
 H2 0.750001 0.013143 0.90222  0.436320454545
 H1 0.250002 0.559626 0.67567  0.0990104545455
 H1 0.750003 0.559626 0.67567  0.0990104545455
 H2 0.249999 0.986865 0.09777  0.436320454545
 H2 0.75 0.986865 0.09777  0.436320454545
 H1 0.249998 0.440385 0.32432  0.0990104545455
 H1 0.749998 0.440385 0.32432  0.0990104545455
 H2 0.249998 0.902286 0.98689  0.436320454545
 H2 0.749999 0.902285 0.98689  0.436320454545
 H1 0.249998 0.675489 0.4404  0.0990104545455
 H1 0.749999 0.675486 0.4404  0.0990104545455
 H2 0.250001 0.097722 0.01310  0.436320454545
 H2 0.750002 0.097722 0.01310  0.436320454545
 H1 0.25 0.324548 0.5595  0.0990104545455
 H1 0.750001 0.324547 0.5595  0.0990104545455
 C1 0.052474 0.123604 0.2347  0.0351204545455
 C1 0.552475 0.123603 0.2347  0.0351204545455
 C2 0.052632 0.043403 0.20776  -0.173546212121
 C2 0.552632 0.043403 0.20776  -0.173546212121
 C3 0.108383 0.001398 0.18974  0.708510454545
 C3 0.608384 0.001398 0.18974  0.708510454545
 C1 0.052432 0.876384 0.76528  0.0351204545455
 C1 0.552433 0.876384 0.76528  0.0351204545455
 C2 0.052607 0.956585 0.79224  -0.173546212121
 C2 0.552608 0.956586 0.79224  -0.173546212121
 C3 0.108368 0.998584 0.81024  0.708510454545
 C3 0.608368 0.998584 0.81024  0.708510454545
 C1 0.052447 0.765095 0.12359  0.0351204545455
 C1 0.552447 0.765095 0.12359  0.0351204545455
 C2 0.052616 0.792087 0.04341  -0.173546212121
 C2 0.552617 0.792087 0.04341  -0.173546212121
 C3 0.10837 0.810165 0.0014  0.708510454545
 C3 0.608371 0.810165 0.0014  0.708510454545
 C1 0.052468 0.234917 0.87640  0.0351204545455
 C1 0.552469 0.234917 0.87640  0.0351204545455
 C2 0.05263 0.207924 0.95659  -0.173546212121
 C2 0.552631 0.207923 0.95659  -0.173546212121
 C3 0.10838 0.189849 0.9985  0.708510454545
 C3 0.608381 0.189851 0.9985  0.708510454545
 C1 0.197536 0.376431 0.73485  0.0351204545455
 C1 0.697537 0.37643 0.73485  0.0351204545455
 C2 0.197373 0.456625 0.70789  -0.173546212121
 C2 0.697374 0.456625 0.70789  -0.173546212121
 C3 0.141619 0.498612 0.68984  0.708510454545
 C3 0.64162 0.498612 0.68984  0.708510454545
 C1 0.197551 0.623583 0.26514  0.0351204545455
 C1 0.697551 0.623583 0.26514  0.0351204545455
 C2 0.197381 0.54339 0.29210  -0.173546212121
 C2 0.697382 0.54339 0.29210  -0.173546212121
 C3 0.141628 0.50141 0.31019  0.708510454545
 C3 0.641628 0.50141 0.31019  0.708510454545
 C1 0.19754 0.734809 0.62362  0.0351204545455
 C1 0.697541 0.734807 0.62362  0.0351204545455
 C2 0.197375 0.707801 0.54343  -0.173546212121
 C2 0.697375 0.7078 0.54343  -0.173546212121
 C3 0.141617 0.689814 0.5014  0.708510454545
 C3 0.641619 0.689808 0.5014  0.708510454545
 C1 0.197548 0.265206 0.37637  0.0351204545455
 C1 0.697549 0.265206 0.37637  0.0351204545455
 C2 0.19738 0.29222 0.45655  -0.173546212121
 C2 0.697381 0.29222 0.45655  -0.173546212121
 C3 0.141624 0.310216 0.49856  0.708510454545
 C3 0.641625 0.310218 0.49856  0.708510454545
 C1 0.447523 0.876404 0.76527  0.0351204545455
 C1 0.947524 0.876404 0.76527  0.0351204545455
 C2 0.447366 0.956605 0.79223  -0.173546212121
 C2 0.947367 0.956605 0.79223  -0.173546212121
 C3 0.391616 0.998611 0.81025  0.708510454545
 C3 0.891617 0.998611 0.81025  0.708510454545
 C1 0.447565 0.123621 0.23472  0.0351204545455
 C1 0.947566 0.123621 0.23472  0.0351204545455
 C2 0.447391 0.04342 0.20775  -0.173546212121
 C2 0.947392 0.04342 0.20775  -0.173546212121
 C3 0.391631 0.001421 0.18975  0.708510454545
 C3 0.891631 0.001421 0.18975  0.708510454545
 C1 0.447554 0.234911 0.87640  0.0351204545455
 C1 0.947555 0.234911 0.87640  0.0351204545455
 C2 0.447383 0.20792 0.95658  -0.173546212121
 C2 0.947384 0.20792 0.95658  -0.173546212121
 C3 0.39163 0.189841 0.99856  0.708510454545
 C3 0.89163 0.189841 0.99856  0.708510454545
 C1 0.447532 0.765091 0.1235  0.0351204545455
 C1 0.947533 0.765091 0.1235  0.0351204545455
 C2 0.44737 0.792084 0.04340  -0.173546212121
 C2 0.947371 0.792084 0.04340  -0.173546212121
 C3 0.391619 0.810156 0.0014  0.708510454545
 C3 0.89162 0.810156 0.0014  0.708510454545
 C1 0.302462 0.62358 0.26514  0.0351204545455
 C1 0.802463 0.62358 0.26514  0.0351204545455
 C2 0.302626 0.543387 0.29210  -0.173546212121
 C2 0.802626 0.543386 0.29210  -0.173546212121
 C3 0.358382 0.501397 0.31014  0.708510454545
 C3 0.858382 0.501397 0.31014  0.708510454545
 C1 0.302448 0.376428 0.73485  0.0351204545455
 C1 0.802449 0.376428 0.73485  0.0351204545455
 C2 0.302618 0.456621 0.70789  -0.173546212121
 C2 0.802619 0.456621 0.70789  -0.173546212121
 C3 0.358373 0.4986 0.68981  0.708510454545
 C3 0.858373 0.4986 0.68981  0.708510454545
 C1 0.302461 0.265213 0.37637  0.0351204545455
 C1 0.802462 0.265213 0.37637  0.0351204545455
 C2 0.302625 0.292223 0.45655  -0.173546212121
 C2 0.802626 0.292223 0.45655  -0.173546212121
 C3 0.358379 0.310228 0.49856  0.708510454545
 C3 0.85838 0.310226 0.49856  0.708510454545
 C1 0.302454 0.73481 0.62362  0.0351204545455
 C1 0.802454 0.734809 0.62362  0.0351204545455
 C2 0.30262 0.707803 0.54343  -0.173546212121
 C2 0.802621 0.707801 0.54343  -0.173546212121
 C3 0.358374 0.689785 0.50143  0.708510454545
 C3 0.858375 0.689787 0.50143  0.708510454545
 C2 2.3e-05 0.163599 0.24897  -0.173546212121
 C2 0.500024 0.163599 0.24897  -0.173546212121
 C1 7e-06 0.003004 0.1956  0.0351204545455
 C1 0.500008 0.003003 0.1956  0.0351204545455
 C3 3.1e-05 0.248797 0.27985  0.708510454545
 C3 0.500032 0.248797 0.27985  0.708510454545
 C2 0.999973 0.836407 0.75102  -0.173546212121
 C2 0.499974 0.836407 0.75102  -0.173546212121
 C1 0.99999 0.997003 0.80439  0.0351204545455
 C1 0.499991 0.997003 0.80439  0.0351204545455
 C3 0.999964 0.751211 0.72014  0.708510454545
 C3 0.499965 0.751211 0.72014  0.708510454545
 C2 0.999987 0.75085 0.16357  -0.173546212121
 C2 0.499988 0.75085 0.16357  -0.173546212121
 C1 0.999995 0.804234 0.00300  0.0351204545455
 C1 0.499995 0.804234 0.0030  0.0351204545455
 C3 0.999984 0.720073 0.24879  0.708510454545
 C3 0.499985 0.720074 0.24879  0.708510454545
 C2 1.3e-05 0.249157 0.83642  -0.173546212121
 C2 0.500013 0.249157 0.83642  -0.173546212121
 C1 4e-06 0.195773 0.99698  0.0351204545455
 C1 0.500005 0.195773 0.99698  0.0351204545455
 C3 1.6e-05 0.279937 0.75120  0.708510454545
 C3 0.500017 0.279935 0.75120  0.708510454545
 C2 0.249991 0.336444 0.749  -0.173546212121
 C2 0.749991 0.336444 0.749  -0.173546212121
 C1 0.249998 0.497032 0.69576  0.0351204545455
 C1 0.749998 0.497032 0.69576  0.0351204545455
 C3 0.249987 0.251218 0.77988  0.708510454545
 C3 0.749988 0.251218 0.77988  0.708510454545
 C2 0.250008 0.663567 0.25090  -0.173546212121
 C2 0.750009 0.663567 0.25090  -0.173546212121
 C1 0.250002 0.50298 0.30423  0.0351204545455
 C1 0.750002 0.502979 0.30423  0.0351204545455
 C3 0.250011 0.748795 0.2201  0.708510454545
 C3 0.750012 0.748795 0.22013  0.708510454545
 C2 0.249997 0.74906 0.66360  -0.173546212121
 C2 0.749997 0.749059 0.66360  -0.173546212121
 C1 0.249998 0.695635 0.50303  0.0351204545455
 C1 0.749998 0.695633 0.50303  0.0351204545455
 C3 0.249995 0.779838 0.74883  0.708510454545
 C3 0.749995 0.77984 0.74883  0.708510454545
 C2 0.250006 0.250958 0.33639  -0.173546212121
 C2 0.750006 0.250958 0.33639  -0.173546212121
 C1 0.250002 0.304395 0.49695  0.0351204545455
 C1 0.750003 0.304394 0.49695  0.0351204545455
 C3 0.250009 0.220162 0.25116  0.708510454545
 C3 0.75001 0.220163 0.25116  0.708510454545
 O1 0.04937 0.281482 0.29171  -0.600876212121
 O1 0.549371 0.281482 0.29171  -0.600876212121
 O1 0.155239 0.04074 0.18043  -0.600876212121
 O1 0.65524 0.04074 0.18043  -0.600876212121
 O1 0.107162 0.924134 0.18377  -0.600876212121
 O1 0.607163 0.924134 0.18377  -0.600876212121
 O1 0.049295 0.71851 0.70828  -0.600876212121
 O1 0.549297 0.71851 0.70828  -0.600876212121
 O1 0.155218 0.959236 0.81955  -0.600876212121
 O1 0.655219 0.959236 0.81955  -0.600876212121
 O1 0.107158 0.075847 0.8162  -0.600876212121
 O1 0.607158 0.075847 0.8162  -0.600876212121
 O1 0.049319 0.708233 0.28149  -0.600876212121
 O1 0.54932 0.708233 0.28149  -0.600876212121
 O1 0.155211 0.819522 0.04079  -0.600876212121
 O1 0.655212 0.819522 0.04079  -0.600876212121
 O1 0.107157 0.816215 0.92415  -0.600876212121
 O1 0.607158 0.816216 0.92415  -0.600876212121
 O1 0.049353 0.291771 0.71850  -0.600876212121
 O1 0.549353 0.291772 0.71850  -0.600876212121
 O1 0.155221 0.180475 0.95921  -0.600876212121
 O1 0.655222 0.180474 0.95921  -0.600876212121
 O1 0.107161 0.183787 0.0758  -0.600876212121
 O1 0.607162 0.183787 0.0758  -0.600876212121
 O1 0.20065 0.218531 0.79174  -0.600876212121
 O1 0.700651 0.218532 0.79174  -0.600876212121
 O1 0.094779 0.459251 0.6804  -0.600876212121
 O1 0.59478 0.459251 0.68045  -0.600876212121
 O1 0.142837 0.57588 0.68379  -0.600876212121
 O1 0.642838 0.57588 0.6837  -0.600876212121
 O1 0.200676 0.781475 0.20824  -0.600876212121
 O1 0.700677 0.781474 0.20824  -0.600876212121
 O1 0.094781 0.540768 0.3195  -0.600876212121
 O1 0.594782 0.540768 0.31952  -0.600876212121
 O1 0.142837 0.424139 0.31619  -0.600876212121
 O1 0.642838 0.424139 0.31619  -0.600876212121
 O1 0.200657 0.791786 0.78148  -0.600876212121
 O1 0.700657 0.791785 0.78148  -0.600876212121
 O1 0.094772 0.680448 0.54078  -0.600876212121
 O1 0.594772 0.68045 0.54078  -0.600876212121
 O1 0.142844 0.683746 0.42415  -0.600876212121
 O1 0.642844 0.683748 0.42415  -0.600876212121
 O1 0.200673 0.208222 0.21850  -0.600876212121
 O1 0.700674 0.208222 0.21850  -0.600876212121
 O1 0.094775 0.319554 0.45921  -0.600876212121
 O1 0.594776 0.319553 0.45921  -0.600876212121
 O1 0.142849 0.316263 0.57583  -0.600876212121
 O1 0.642849 0.316262 0.57583  -0.600876212121
 O1 0.450625 0.718526 0.70828  -0.600876212121
 O1 0.950626 0.718526 0.70828  -0.600876212121
 O1 0.344759 0.95927 0.81956  -0.600876212121
 O1 0.84476 0.95927 0.81956  -0.600876212121
 O1 0.392837 0.075875 0.81621  -0.600876212121
 O1 0.892837 0.075875 0.81621  -0.600876212121
 O1 0.4507 0.281496 0.29171  -0.600876212121
 O1 0.950701 0.281496 0.29171  -0.600876212121
 O1 0.344781 0.040769 0.1804  -0.600876212121
 O1 0.844781 0.040769 0.18043  -0.600876212121
 O1 0.392841 0.924158 0.18375  -0.600876212121
 O1 0.892842 0.924159 0.18375  -0.600876212121
 O1 0.450682 0.291774 0.71850  -0.600876212121
 O1 0.950683 0.291773 0.71850  -0.600876212121
 O1 0.344788 0.180486 0.95920  -0.600876212121
 O1 0.844789 0.180486 0.95920  -0.600876212121
 O1 0.392842 0.183791 0.07583  -0.600876212121
 O1 0.892843 0.183791 0.07583  -0.600876212121
 O1 0.450649 0.708234 0.28149  -0.600876212121
 O1 0.950649 0.708235 0.28149  -0.600876212121
 O1 0.344779 0.819533 0.04078  -0.600876212121
 O1 0.84478 0.819533 0.04078  -0.600876212121
 O1 0.392839 0.816222 0.9241  -0.600876212121
 O1 0.892839 0.816221 0.92414  -0.600876212121
 O1 0.299348 0.781475 0.20824  -0.600876212121
 O1 0.799349 0.781475 0.20824  -0.600876212121
 O1 0.40522 0.540758 0.31954  -0.600876212121
 O1 0.905221 0.540758 0.31954  -0.600876212121
 O1 0.35716 0.42413 0.31621  -0.600876212121
 O1 0.857161 0.42413 0.31621  -0.600876212121
 O1 0.299321 0.218532 0.79174  -0.600876212121
 O1 0.799322 0.218532 0.79174  -0.600876212121
 O1 0.405217 0.459239 0.68047  -0.600876212121
 O1 0.905217 0.459239 0.68047  -0.600876212121
 O1 0.357161 0.575869 0.68379  -0.600876212121
 O1 0.857162 0.575869 0.68379  -0.600876212121
 O1 0.299348 0.208228 0.2185  -0.600876212121
 O1 0.799348 0.208228 0.2185  -0.600876212121
 O1 0.405231 0.319552 0.4592  -0.600876212121
 O1 0.905232 0.319553 0.4592  -0.600876212121
 O1 0.357157 0.316254 0.5758  -0.600876212121
 O1 0.857157 0.316255 0.5758  -0.600876212121
 O1 0.299332 0.791791 0.78148  -0.600876212121
 O1 0.799332 0.79179 0.78148  -0.600876212121
 O1 0.405224 0.680459 0.54077  -0.600876212121
 O1 0.905225 0.680458 0.54077  -0.600876212121
 O1 0.357153 0.683757 0.42415  -0.600876212121
 O1 0.857153 0.683755 0.42415  -0.600876212121
 O2 2e-06 0.426784 0.40300  -0.936409545455
 O2 0.500003 0.426784 0.40300  -0.936409545455
 O2 0.999996 0.573224 0.59699  -0.936409545455
 O2 0.499997 0.573224 0.59699  -0.936409545455
 O2 0.999997 0.596998 0.42678  -0.936409545455
 O2 0.499998 0.596997 0.42678  -0.936409545455
 O2 1e-06 0.40301 0.57321  -0.936409545455
 O2 0.500002 0.40301 0.57321  -0.936409545455
 O2 0.249998 0.07323 0.90299  -0.936409545455
 O2 0.749999 0.07323 0.90299  -0.936409545455
 O2 0.25 0.926778 0.09  -0.936409545455
 O2 0.750001 0.926778 0.09  -0.936409545455
 O2 0.249998 0.903016 0.92680  -0.936409545455
 O2 0.749998 0.903016 0.92680  -0.936409545455
 O2 0.250002 0.096991 0.07319  -0.936409545455
 O2 0.750003 0.096991 0.07319  -0.936409545455
