#======================================================================

# CRYSTAL DATA

#----------------------------------------------------------------------

data_VESTA_phase_1


_pd_phase_name                         MOF
_cell_length_a                         14.00400
_cell_length_b                         15.37700
_cell_length_c                         15.34800
_cell_angle_alpha                      88.19600
_cell_angle_beta                       85.27900
_cell_angle_gamma                      85.56600
_symmetry_space_group_name_H-M         "P 1"
_symmetry_Int_Tables_number            1

loop_
_symmetry_equiv_pos_as_xyz
   "x, y, z"

loop_
   _atom_site_label
   _atom_site_fract_x
   _atom_site_fract_y
   _atom_site_fract_z
 _atom_site_charge
 Zn1 0.891031 0.837368 0.59988  0.912360675676
 Zn1 0.688014 0.852014 0.61468  0.912360675676
 Zn1 0.108985 0.162643 0.40013  0.912360675676
 Zn1 0.312002 0.147997 0.38533  0.912360675676
 H1 0.928796 0.783809 0.87386  0.104642342342
 H1 0.931429 0.783145 0.03565  0.104642342342
 H1 0.644772 0.909152 0.0558  0.104642342342
 H1 0.638828 0.828168 0.18083  0.104642342342
 H1 0.64204 0.904879 0.8941  0.104642342342
 H1 0.642761 0.828837 0.34243  0.104642342342
 H1 0.944913 0.862627 0.31309  0.104642342342
 H1 0.941907 0.865659 0.15209  0.104642342342
 H1 0.935481 0.109482 0.60961  0.104642342342
 H1 0.62848 0.138748 0.60879  0.104642342342
 H1 0.632731 0.299588 0.61224  0.104642342342
 H1 0.941351 0.268715 0.6171  0.104642342342
 H1 0.929507 0.393523 0.54276  0.104642342342
 H1 0.933209 0.554749 0.54123  0.104642342342
 H1 0.026085 0.973721 0.62030  0.104642342342
 H1 0.06043 0.706461 0.59010  0.104642342342
 H1 0.237784 0.704675 0.59312  0.104642342342
 H1 0.200902 0.983537 0.63126  0.104642342342
 H1 0.367507 0.712903 0.66019  0.104642342342
 H1 0.346736 0.982938 0.56965  0.104642342342
 H1 0.545024 0.722088 0.65728  0.104642342342
 H1 0.523675 0.981927 0.57904  0.104642342342
 H1 0.656521 0.577377 0.68359  0.104642342342
 H1 0.652886 0.416193 0.6892  0.104642342342
 H1 0.071213 0.216201 0.12616  0.104642342342
 H1 0.068582 0.216872 0.96436  0.104642342342
 H1 0.355236 0.090863 0.94421  0.104642342342
 H1 0.361183 0.171845 0.81918  0.104642342342
 H1 0.357968 0.095128 0.1058  0.104642342342
 H1 0.357251 0.171179 0.65758  0.104642342342
 H1 0.055099 0.137389 0.68692  0.104642342342
 H1 0.058103 0.134353 0.84792  0.104642342342
 H1 0.064535 0.890528 0.39040  0.104642342342
 H1 0.371536 0.861262 0.39123  0.104642342342
 H1 0.367284 0.700422 0.38778  0.104642342342
 H1 0.058665 0.731295 0.3829  0.104642342342
 H1 0.070508 0.606486 0.45725  0.104642342342
 H1 0.066809 0.44526 0.45879  0.104642342342
 H1 0.97393 0.02629 0.37971  0.104642342342
 H1 0.939584 0.29355 0.40992  0.104642342342
 H1 0.76223 0.295335 0.40689  0.104642342342
 H1 0.799113 0.016473 0.36876  0.104642342342
 H1 0.63251 0.287107 0.33982  0.104642342342
 H1 0.653278 0.017072 0.43036  0.104642342342
 H1 0.454992 0.277922 0.34273  0.104642342342
 H1 0.47634 0.018084 0.42097  0.104642342342
 H1 0.343498 0.422635 0.31642  0.104642342342
 H1 0.347129 0.583818 0.31073  0.104642342342
 C1 0.784147 0.843264 0.77660  0.678115675676
 C2 0.785218 0.844153 0.87413  -0.0208193243243
 C3 0.866932 0.810811 0.91464  -0.106882824324
 C3 0.868264 0.811512 0.00508  -0.106882824324
 C3 0.706814 0.880039 0.0165  -0.106882824324
 C1 0.795435 0.846082 0.43585  0.678115675676
 C2 0.793907 0.84601 0.33826  -0.0208193243243
 C3 0.705971 0.83737 0.20940  -0.106882824324
 C3 0.705059 0.878601 0.92613  -0.106882824324
 C3 0.707775 0.837082 0.29986  -0.106882824324
 C3 0.877989 0.855471 0.28364  -0.106882824324
 C3 0.876071 0.856248 0.19319  -0.106882824324
 C2 0.790061 0.846925 0.15405  -0.0208193243243
 C2 0.788331 0.846307 0.05793  -0.0208193243243
 C1 0.779778 0.016379 0.60572  0.678115675676
 C2 0.781588 0.113466 0.60993  -0.0208193243243
 C3 0.869148 0.151383 0.61203  -0.106882824324
 C3 0.69656 0.16805 0.61109  -0.106882824324
 C3 0.69941 0.258148 0.61373  -0.106882824324
 C3 0.872083 0.241336 0.6150  -0.106882824324
 C2 0.787212 0.296761 0.61558  -0.0208193243243
 C2 0.790289 0.392577 0.61525  -0.0208193243243
 C3 0.869555 0.433319 0.57453  -0.106882824324
 C3 0.871861 0.523636 0.57301  -0.106882824324
 C2 0.794683 0.5764 0.61145  -0.0208193243243
 C4 0.076109 0.915968 0.61561  0.167868175676
 C4 0.095382 0.766194 0.59850  0.167868175676
 C3 0.194072 0.765879 0.6019  -0.106882824324
 C2 0.235779 0.844535 0.61282  -0.0208193243243
 C3 0.173981 0.920609 0.62057  -0.106882824324
 C2 0.340721 0.847498 0.61518  -0.0208193243243
 C3 0.398696 0.77376 0.63998  -0.106882824324
 C3 0.386573 0.924043 0.5922  -0.106882824324
 C4 0.497272 0.778173 0.63993  0.167868175676
 C4 0.485404 0.923762 0.59527  0.167868175676
 C1 0.795927 0.673897 0.60859  0.678115675676
 C3 0.715707 0.536367 0.65247  -0.106882824324
 C3 0.713781 0.446075 0.65487  -0.106882824324
 C1 0.21587 0.15676 0.22341  0.678115675676
 C2 0.214785 0.155837 0.12589  -0.0208193243243
 C3 0.133085 0.189215 0.08537  -0.106882824324
 C3 0.131738 0.188489 0.99494  -0.106882824324
 C3 0.293187 0.119961 0.98347  -0.106882824324
 C1 0.20458 0.153929 0.56416  0.678115675676
 C2 0.206107 0.154015 0.66175  -0.0208193243243
 C3 0.294034 0.162659 0.79062  -0.106882824324
 C3 0.294956 0.121423 0.07388  -0.106882824324
 C3 0.29224 0.162923 0.70016  -0.106882824324
 C3 0.122026 0.144534 0.71637  -0.106882824324
 C3 0.123934 0.143781 0.80681  -0.106882824324
 C2 0.209948 0.153068 0.84596  -0.0208193243243
 C2 0.211684 0.153727 0.94208  -0.0208193243243
 C1 0.220238 0.983631 0.39429  0.678115675676
 C2 0.218427 0.886546 0.39008  -0.0208193243243
 C3 0.130867 0.848626 0.38799  -0.106882824324
 C3 0.303455 0.831962 0.38893  -0.106882824324
 C3 0.300608 0.741865 0.38628  -0.106882824324
 C3 0.127935 0.758673 0.38500  -0.106882824324
 C2 0.212804 0.703249 0.3844  -0.0208193243243
 C2 0.209721 0.607435 0.38476  -0.0208193243243
 C3 0.130467 0.566692 0.425  -0.106882824324
 C3 0.128151 0.476375 0.42700  -0.106882824324
 C2 0.20534 0.42361 0.38858  -0.0208193243243
 C4 0.923906 0.084042 0.38441  0.167868175676
 C4 0.904633 0.233817 0.40152  0.167868175676
 C3 0.805944 0.234133 0.39809  -0.106882824324
 C2 0.764236 0.155475 0.38720  -0.0208193243243
 C3 0.826035 0.079403 0.37944  -0.106882824324
 C2 0.659295 0.152511 0.38483  -0.0208193243243
 C3 0.601319 0.226251 0.36003  -0.106882824324
 C3 0.613441 0.075968 0.40775  -0.106882824324
 C4 0.502745 0.221836 0.36008  0.167868175676
 C4 0.514612 0.076248 0.40474  0.167868175676
 C1 0.204088 0.326114 0.39142  0.678115675676
 C3 0.284305 0.463644 0.3475  -0.106882824324
 C3 0.286241 0.553934 0.34516  -0.106882824324
 N1 0.03698 0.840023 0.60458  -0.304269324324
 N1 0.540423 0.852051 0.61798  -0.304269324324
 N1 0.963035 0.159988 0.39543  -0.304269324324
 N1 0.459592 0.14796 0.38203  -0.304269324324
 O1 0.699931 0.985876 0.59309  -0.595710574324
 O1 0.858612 0.971252 0.61482  -0.595710574324
 O1 0.862631 0.819163 0.73322  -0.595710574324
 O1 0.704767 0.866916 0.74433  -0.595710574324
 O1 0.716859 0.717492 0.63022  -0.595710574324
 O1 0.87565 0.705774 0.58467  -0.595710574324
 O1 0.715649 0.837918 0.48056  -0.595710574324
 O1 0.875746 0.855593 0.46667  -0.595710574324
 O1 0.300086 0.014136 0.40692  -0.595710574324
 O1 0.141404 0.028759 0.38519  -0.595710574324
 O1 0.137382 0.180845 0.26679  -0.595710574324
 O1 0.295246 0.133092 0.25568  -0.595710574324
 O1 0.283158 0.282519 0.36979  -0.595710574324
 O1 0.124367 0.294237 0.4153  -0.595710574324
 O1 0.284368 0.162091 0.51945  -0.595710574324
 O1 0.12427 0.144418 0.53334  -0.595710574324
