#======================================================================

# CRYSTAL DATA

#----------------------------------------------------------------------

data_VESTA_phase_1


_pd_phase_name                         MOF
_cell_length_a                         15.44000
_cell_length_b                         17.79000
_cell_length_c                         18.31800
_cell_angle_alpha                      112.23200
_cell_angle_beta                       90.00400
_cell_angle_gamma                      89.99600
_symmetry_space_group_name_H-M         "P 1"
_symmetry_Int_Tables_number            1

loop_
_symmetry_equiv_pos_as_xyz
   "x, y, z"

loop_
   _atom_site_label
   _atom_site_fract_x
   _atom_site_fract_y
   _atom_site_fract_z
 _atom_site_charge
 Zn1 0.500029 0.502659 0.83402  1.18765824786
 Zn2 0.096647 0.002946 0.16680  1.09436574786
 Zn2 0.599077 0.49677 0.99659  1.09436574786
 Zn2 0.900089 0.0 0.16628  1.09436574786
 Zn1 0.0 0.997364 0.66599  1.18765824786
 Zn2 0.596656 0.497057 0.33320  1.09436574786
 Zn2 0.099078 0.003198 0.50343  1.09436574786
 Zn2 0.40008 0.499942 0.3337  1.09436574786
 Zn1 0.499981 0.497349 0.16599  1.18765824786
 Zn2 0.903366 0.997069 0.83320  1.09436574786
 Zn2 0.40093 0.503222 0.00342  1.09436574786
 Zn2 0.099924 0.999927 0.83371  1.09436574786
 Zn1 0.999969 0.002639 0.33401  1.18765824786
 Zn2 0.403357 0.502952 0.66680  1.09436574786
 Zn2 0.90094 0.996797 0.49657  1.09436574786
 Zn2 0.599933 0.500047 0.66629  1.09436574786
 Zn1 0.999999 0.999988 0.99999  1.18765824786
 Zn1 0.500006 0.499995 0.50000  1.18765824786
 H1 0.50132 0.396913 0.69736  0.455508247863
 H1 0.501511 0.606141 0.97268  0.455508247863
 H1 0.994269 0.106884 0.13700  0.455508247863
 H2 0.832108 0.162639 0.80626  0.100903247863
 H2 0.747356 0.282865 0.8926  0.100903247863
 H2 0.62188 0.295595 0.68811  0.100903247863
 H2 0.709907 0.177912 0.60156  0.100903247863
 H2 0.105488 0.773281 0.87207  0.100903247863
 H2 0.203183 0.664771 0.78354  0.100903247863
 H2 0.397929 0.732571 0.96439  0.100903247863
 H2 0.30027 0.841302 0.05289  0.100903247863
 H2 0.678367 0.660852 0.97421  0.100903247863
 H2 0.754102 0.787088 0.06108  0.100903247863
 H2 0.820926 0.840749 0.85813  0.100903247863
 H2 0.744361 0.715137 0.77126  0.100903247863
 H1 0.0 0.103084 0.80266  0.455508247863
 H1 0.0 0.893868 0.52734  0.455508247863
 H1 0.494288 0.393105 0.36298  0.455508247863
 H2 0.332084 0.337333 0.69374  0.100903247863
 H2 0.24736 0.217086 0.60735  0.100903247863
 H2 0.121904 0.20438 0.81191  0.100903247863
 H2 0.209907 0.322081 0.89845  0.100903247863
 H2 0.605587 0.726722 0.62796  0.100903247863
 H2 0.703313 0.835213 0.71647  0.100903247863
 H2 0.898044 0.767308 0.53562  0.100903247863
 H2 0.800341 0.658599 0.44713  0.100903247863
 H2 0.178354 0.839183 0.52580  0.100903247863
 H2 0.254085 0.712946 0.43890  0.100903247863
 H2 0.320909 0.659231 0.64185  0.100903247863
 H2 0.244342 0.784836 0.72872  0.100903247863
 H1 0.498685 0.603091 0.3026  0.455508247863
 H1 0.498501 0.393858 0.02733  0.455508247863
 H1 0.005727 0.893121 0.86300  0.455508247863
 H2 0.167897 0.83736 0.1937  0.100903247863
 H2 0.252639 0.717125 0.10733  0.100903247863
 H2 0.378118 0.704397 0.31189  0.100903247863
 H2 0.290097 0.822085 0.3984  0.100903247863
 H2 0.894507 0.226712 0.12794  0.100903247863
 H2 0.796808 0.335217 0.21647  0.100903247863
 H2 0.602067 0.26742 0.03562  0.100903247863
 H2 0.699731 0.158694 0.94712  0.100903247863
 H2 0.32164 0.339153 0.0257  0.100903247863
 H2 0.245904 0.212919 0.93891  0.100903247863
 H2 0.179075 0.159255 0.14186  0.100903247863
 H2 0.255641 0.284863 0.22873  0.100903247863
 H1 0.998698 0.89692 0.19734  0.455508247863
 H1 0.998492 0.10613 0.47267  0.455508247863
 H1 0.505738 0.606892 0.63701  0.455508247863
 H2 0.667929 0.662671 0.30625  0.100903247863
 H2 0.752662 0.782911 0.39265  0.100903247863
 H2 0.878107 0.795623 0.18809  0.100903247863
 H2 0.790097 0.677927 0.10155  0.100903247863
 H2 0.394407 0.273292 0.37204  0.100903247863
 H2 0.296678 0.164802 0.28353  0.100903247863
 H2 0.101952 0.23271 0.46439  0.100903247863
 H2 0.199658 0.341418 0.55288  0.100903247863
 H2 0.821657 0.16081 0.47420  0.100903247863
 H2 0.745926 0.287047 0.56109  0.100903247863
 H2 0.679089 0.340751 0.3581  0.100903247863
 H2 0.755654 0.215143 0.27127  0.100903247863
 C1 0.833647 0.095582 0.64691  0.708581581197
 C2 0.77777 0.164007 0.6983  -0.127363418803
 C3 0.786969 0.192805 0.78066  -0.0527859188034
 C3 0.739099 0.259301 0.82892  -0.0527859188034
 C2 0.679386 0.296874 0.79582  -0.127363418803
 C1 0.628442 0.369199 0.84742  0.708581581197
 C3 0.668313 0.266511 0.71369  -0.0527859188034
 C3 0.717541 0.201114 0.66534  -0.0527859188034
 C1 0.138272 0.879373 0.02021  0.708581581197
 C2 0.196905 0.814034 0.96780  -0.127363418803
 C3 0.169789 0.764209 0.89172  -0.0527859188034
 C3 0.224028 0.703822 0.8425  -0.0527859188034
 C2 0.306595 0.692069 0.86857  -0.127363418803
 C1 0.364956 0.62653 0.81597  0.708581581197
 C3 0.33369 0.741809 0.94469  -0.0527859188034
 C3 0.279486 0.802312 0.99389  -0.0527859188034
 C1 0.658896 0.60627 0.81575  0.708581581197
 C2 0.706426 0.680577 0.86740  -0.127363418803
 C3 0.709223 0.700665 0.94917  -0.0527859188034
 C3 0.751934 0.770527 0.99755  -0.0527859188034
 C2 0.793036 0.820931 0.96494  -0.127363418803
 C1 0.841224 0.894605 0.01693  0.708581581197
 C3 0.790014 0.800995 0.88320  -0.0527859188034
 C3 0.74705 0.731236 0.83477  -0.0527859188034
 C1 0.333627 0.404407 0.853  0.708581581197
 C2 0.27776 0.335975 0.80162  -0.127363418803
 C3 0.286958 0.307165 0.71935  -0.0527859188034
 C3 0.239103 0.240657 0.671  -0.0527859188034
 C2 0.179405 0.203085 0.70419  -0.127363418803
 C1 0.128469 0.130752 0.65260  0.708581581197
 C3 0.168329 0.233462 0.78632  -0.0527859188034
 C3 0.217543 0.298869 0.83467  -0.0527859188034
 C1 0.638314 0.620623 0.47980  0.708581581197
 C2 0.696986 0.685931 0.53222  -0.127363418803
 C3 0.669889 0.735769 0.60830  -0.0527859188034
 C3 0.724144 0.796144 0.65751  -0.0527859188034
 C2 0.80671 0.807871 0.63143  -0.127363418803
 C1 0.865047 0.873439 0.68403  0.708581581197
 C3 0.833799 0.758102 0.55532  -0.0527859188034
 C3 0.779576 0.697612 0.50614  -0.0527859188034
 C1 0.15888 0.893737 0.68426  0.708581581197
 C2 0.20641 0.819429 0.63260  -0.127363418803
 C3 0.20921 0.799359 0.55084  -0.0527859188034
 C3 0.251923 0.729499 0.5024  -0.0527859188034
 C2 0.293024 0.679079 0.53504  -0.127363418803
 C1 0.341202 0.605399 0.48303  0.708581581197
 C3 0.29 0.698998 0.61678  -0.0527859188034
 C3 0.247034 0.768754 0.66522  -0.0527859188034
 C1 0.166364 0.904419 0.35309  0.708581581197
 C2 0.222235 0.835991 0.30161  -0.127363418803
 C3 0.213034 0.807191 0.21934  -0.0527859188034
 C3 0.260898 0.74069 0.17108  -0.0527859188034
 C2 0.32061 0.703118 0.20418  -0.127363418803
 C1 0.371555 0.630792 0.15258  0.708581581197
 C3 0.331686 0.733482 0.28631  -0.0527859188034
 C3 0.282462 0.798882 0.33465  -0.0527859188034
 C1 0.861736 0.120635 0.979  0.708581581197
 C2 0.803095 0.185963 0.03220  -0.127363418803
 C3 0.830206 0.235783 0.10828  -0.0527859188034
 C3 0.775966 0.296168 0.15750  -0.0527859188034
 C2 0.6934 0.307922 0.13143  -0.127363418803
 C1 0.635044 0.373467 0.18404  0.708581581197
 C3 0.666306 0.258183 0.05531  -0.0527859188034
 C3 0.720513 0.197682 0.00612  -0.0527859188034
 C1 0.341114 0.39373 0.18425  0.708581581197
 C2 0.29358 0.319426 0.132  -0.127363418803
 C3 0.290783 0.29934 0.05083  -0.0527859188034
 C3 0.248071 0.229478 0.00244  -0.0527859188034
 C2 0.206969 0.179072 0.03505  -0.127363418803
 C1 0.158788 0.105394 0.9830  0.708581581197
 C3 0.209988 0.199008 0.11679  -0.0527859188034
 C3 0.252953 0.268766 0.16523  -0.0527859188034
 C1 0.666382 0.595596 0.14690  0.708581581197
 C2 0.722249 0.66403 0.19837  -0.127363418803
 C3 0.713056 0.692837 0.28065  -0.0527859188034
 C3 0.760915 0.759342 0.32890  -0.0527859188034
 C2 0.820615 0.796913 0.29580  -0.127363418803
 C1 0.871556 0.869241 0.34740  0.708581581197
 C3 0.831683 0.766541 0.21367  -0.0527859188034
 C3 0.782465 0.701136 0.16533  -0.0527859188034
 C1 0.36169 0.379386 0.52020  0.708581581197
 C2 0.303012 0.314083 0.46778  -0.127363418803
 C3 0.330106 0.264245 0.39170  -0.0527859188034
 C3 0.27585 0.203871 0.34250  -0.0527859188034
 C2 0.193284 0.192144 0.3685  -0.127363418803
 C1 0.13495 0.126575 0.31598  0.708581581197
 C3 0.166197 0.241914 0.44469  -0.0527859188034
 C3 0.220422 0.302404 0.49387  -0.0527859188034
 C1 0.84113 0.106254 0.31574  0.708581581197
 C2 0.793594 0.180558 0.36739  -0.127363418803
 C3 0.790797 0.200631 0.44916  -0.0527859188034
 C3 0.748085 0.270491 0.49755  -0.0527859188034
 C2 0.706982 0.320908 0.46495  -0.127363418803
 C1 0.658806 0.394589 0.51696  0.708581581197
 C3 0.71 0.300986 0.38321  -0.0527859188034
 C3 0.752965 0.231229 0.33477  -0.0527859188034
 O1 0.500625 0.455491 0.71116  -1.00032175214
 O1 0.500011 0.547258 0.95647  -1.00032175214
 O1 0.996932 0.048189 0.12198  -1.00032175214
 O2 0.337484 0.589028 0.74476  -0.624571752137
 O2 0.166483 0.91892 0.09076  -0.624571752137
 O2 0.832671 0.082241 0.5723  -0.624571752137
 O2 0.562749 0.390614 0.81889  -0.624571752137
 O2 0.435852 0.612715 0.84318  -0.624571752137
 O2 0.878334 0.938884 0.98647  -0.624571752137
 O2 0.656342 0.404188 0.91878  -0.624571752137
 O2 0.066147 0.891255 0.99358  -0.624571752137
 O2 0.877526 0.056343 0.67857  -0.624571752137
 O2 0.622021 0.562374 0.84686  -0.624571752137
 O2 0.840922 0.907465 0.09130  -0.624571752137
 O2 0.659495 0.592478 0.74126  -0.624571752137
 O1 0.0 0.044504 0.78885  -1.00032175214
 O1 0.0 0.952751 0.54353  -1.00032175214
 O1 0.49693 0.451801 0.37801  -1.00032175214
 O2 0.837552 0.910958 0.75522  -0.624571752137
 O2 0.666501 0.581098 0.40924  -0.624571752137
 O2 0.332647 0.417758 0.92764  -0.624571752137
 O2 0.062738 0.109386 0.6811  -0.624571752137
 O2 0.935928 0.887276 0.65681  -0.624571752137
 O2 0.378324 0.561115 0.51350  -0.624571752137
 O2 0.156414 0.095709 0.58126  -0.624571752137
 O2 0.566194 0.608761 0.50644  -0.624571752137
 O2 0.377503 0.443641 0.82143  -0.624571752137
 O2 0.122019 0.937655 0.65315  -0.624571752137
 O2 0.340906 0.592552 0.40867  -0.624571752137
 O2 0.159476 0.907513 0.75874  -0.624571752137
 O1 0.499385 0.544512 0.28884  -1.00032175214
 O1 0.499998 0.452741 0.0435  -1.00032175214
 O1 0.003075 0.951816 0.87802  -1.00032175214
 O2 0.662519 0.410969 0.2552  -0.624571752137
 O2 0.833531 0.081098 0.90924  -0.624571752137
 O2 0.16734 0.917753 0.42763  -0.624571752137
 O2 0.437264 0.609396 0.18111  -0.624571752137
 O2 0.564151 0.387288 0.15682  -0.624571752137
 O2 0.121678 0.061115 0.01352  -0.624571752137
 O2 0.343642 0.595784 0.08122  -0.624571752137
 O2 0.933861 0.108752 0.00642  -0.624571752137
 O2 0.12249 0.943666 0.32143  -0.624571752137
 O2 0.377983 0.437636 0.15314  -0.624571752137
 O2 0.159093 0.09253 0.90869  -0.624571752137
 O2 0.340523 0.407509 0.25873  -0.624571752137
 O1 0.999377 0.9555 0.21115  -1.00032175214
 O1 0.999994 0.047247 0.45647  -1.00032175214
 O1 0.503087 0.548196 0.6219  -1.00032175214
 O2 0.16245 0.089057 0.24478  -0.624571752137
 O2 0.333506 0.418917 0.59076  -0.624571752137
 O2 0.66736 0.582239 0.07235  -0.624571752137
 O2 0.937274 0.890622 0.31888  -0.624571752137
 O2 0.06407 0.112735 0.34319  -0.624571752137
 O2 0.621683 0.438871 0.48649  -0.624571752137
 O2 0.843626 0.904267 0.41875  -0.624571752137
 O2 0.433816 0.391236 0.49356  -0.624571752137
 O2 0.622505 0.556368 0.17857  -0.624571752137
 O2 0.877999 0.062346 0.34685  -0.624571752137
 O2 0.659102 0.407435 0.59132  -0.624571752137
 O2 0.840529 0.092469 0.2412  -0.624571752137
