#======================================================================

# CRYSTAL DATA

#----------------------------------------------------------------------

data_VESTA_phase_1


_pd_phase_name                         MOF
_cell_length_a                         23.28500
_cell_length_b                         13.97600
_cell_length_c                         15.78200
_cell_angle_alpha                      96.06300
_cell_angle_beta                       89.99600
_cell_angle_gamma                      89.97700
_symmetry_space_group_name_H-M         "P 1"
_symmetry_Int_Tables_number            1

loop_
_symmetry_equiv_pos_as_xyz
   "x, y, z"

loop_
   _atom_site_label
   _atom_site_fract_x
   _atom_site_fract_y
   _atom_site_fract_z
 _atom_site_charge
 Zn1 0.047423 0.196754 0.98514  0.904126341463
 Zn1 0.547415 0.196754 0.98514  0.904126341463
 Zn1 0.047847 0.400112 0.00340  0.904126341463
 Zn1 0.547839 0.400112 0.00340  0.904126341463
 Zn1 0.297392 0.80324 0.01482  0.904126341463
 Zn1 0.797384 0.80324 0.01482  0.904126341463
 Zn1 0.297857 0.599881 0.99656  0.904126341463
 Zn1 0.79785 0.599881 0.99656  0.904126341463
 H1 0.20287 0.167177 0.14822  0.105161918386
 H1 0.702862 0.167176 0.14822  0.105161918386
 H1 0.267992 0.169042 0.27361  0.105161918386
 H1 0.767984 0.169041 0.27361  0.105161918386
 H1 0.185931 0.427438 0.38651  0.105161918386
 H1 0.685923 0.427437 0.38651  0.105161918386
 H1 0.12494 0.430488 0.25632  0.105161918386
 H1 0.624933 0.430488 0.25632  0.105161918386
 H1 0.403463 0.29839 0.4926  0.105161918386
 H1 0.903455 0.298389 0.4926  0.105161918386
 H1 0.191588 0.294888 0.49589  0.105161918386
 H1 0.69158 0.294886 0.49589  0.105161918386
 H1 0.40989 0.422682 0.62747  0.105161918386
 H1 0.909881 0.422681 0.62747  0.105161918386
 H1 0.470557 0.423593 0.75784  0.105161918386
 H1 0.970549 0.423592 0.75784  0.105161918386
 H1 0.390491 0.161615 0.81570  0.105161918386
 H1 0.890483 0.161614 0.81570  0.105161918386
 H1 0.325836 0.165369 0.69028  0.105161918386
 H1 0.825828 0.165368 0.69028  0.105161918386
 H1 0.410234 0.174755 0.35835  0.105161918386
 H1 0.910227 0.174755 0.35835  0.105161918386
 H1 0.470786 0.179083 0.22844  0.105161918386
 H1 0.970779 0.179082 0.22844  0.105161918386
 H1 0.384203 0.436136 0.17123  0.105161918386
 H1 0.884195 0.436135 0.17123  0.105161918386
 H1 0.321394 0.429045 0.29740  0.105161918386
 H1 0.821386 0.429044 0.29740  0.105161918386
 H1 0.191089 0.15984 0.60846  0.105161918386
 H1 0.691081 0.159839 0.60846  0.105161918386
 H1 0.130986 0.158892 0.73943  0.105161918386
 H1 0.630977 0.158891 0.73943  0.105161918386
 H1 0.204721 0.429435 0.83953  0.105161918386
 H1 0.704713 0.429435 0.83953  0.105161918386
 H1 0.267595 0.427193 0.71298  0.105161918386
 H1 0.767587 0.427193 0.7129  0.105161918386
 H1 0.137603 0.557171 0.  0.105161918386
 H1 0.637596 0.557171 0.  0.105161918386
 H1 0.140512 0.734015 0.01287  0.105161918386
 H1 0.640504 0.734015 0.01287  0.105161918386
 H1 0.455283 0.728235 0.99034  0.105161918386
 H1 0.955275 0.728235 0.99034  0.105161918386
 H1 0.459782 0.551755 0.99514  0.105161918386
 H1 0.959774 0.551755 0.99514  0.105161918386
 H1 0.122751 0.85209 0.91352  0.105161918386
 H1 0.622744 0.85209 0.91352  0.105161918386
 H1 0.117822 0.030747 0.9075  0.105161918386
 H1 0.617815 0.030747 0.90753  0.105161918386
 H1 0.473902 0.056141 0.06132  0.105161918386
 H1 0.973895 0.056142 0.06132  0.105161918386
 H1 0.470687 0.87804 0.07173  0.105161918386
 H1 0.97068 0.878041 0.07173  0.105161918386
 H1 0.452806 0.832761 0.85176  0.105161918386
 H1 0.952797 0.832761 0.85176  0.105161918386
 H1 0.01794 0.830891 0.72635  0.105161918386
 H1 0.517933 0.830889 0.72635  0.105161918386
 H1 0.435959 0.572548 0.61343  0.105161918386
 H1 0.93595 0.57255 0.61343  0.105161918386
 H1 0.374959 0.569509 0.74363  0.105161918386
 H1 0.874951 0.569508 0.74363  0.105161918386
 H1 0.153461 0.701626 0.50727  0.105161918386
 H1 0.653453 0.701625 0.50727  0.105161918386
 H1 0.441576 0.705049 0.50407  0.105161918386
 H1 0.941568 0.705049 0.50407  0.105161918386
 H1 0.159942 0.577314 0.37247  0.105161918386
 H1 0.659934 0.577313 0.37247  0.105161918386
 H1 0.220611 0.57642 0.24208  0.105161918386
 H1 0.720603 0.57642 0.24208  0.105161918386
 H1 0.140445 0.838441 0.18430  0.105161918386
 H1 0.640437 0.838442 0.18430  0.105161918386
 H1 0.075785 0.834667 0.30972  0.105161918386
 H1 0.575776 0.834666 0.30972  0.105161918386
 H1 0.160182 0.825221 0.64158  0.105161918386
 H1 0.660174 0.825219 0.6415  0.105161918386
 H1 0.220729 0.820915 0.77148  0.105161918386
 H1 0.720721 0.820914 0.77148  0.105161918386
 H1 0.134242 0.563909 0.82876  0.105161918386
 H1 0.634234 0.563909 0.82876  0.105161918386
 H1 0.071439 0.570976 0.70260  0.105161918386
 H1 0.571431 0.570974 0.70260  0.105161918386
 H1 0.441054 0.840167 0.39146  0.105161918386
 H1 0.941045 0.840165 0.39146  0.105161918386
 H1 0.380957 0.841112 0.26050  0.105161918386
 H1 0.880947 0.841109 0.26050  0.105161918386
 H1 0.454754 0.570482 0.16046  0.105161918386
 H1 0.954746 0.570481 0.16046  0.105161918386
 H1 0.017633 0.57273 0.28700  0.105161918386
 H1 0.517624 0.572729 0.28700  0.105161918386
 H1 0.387628 0.442689 0.98206  0.105161918386
 H1 0.88762 0.442689 0.98206  0.105161918386
 H1 0.390531 0.265841 0.98711  0.105161918386
 H1 0.890523 0.265841 0.98711  0.105161918386
 H1 0.205294 0.271895 0.00959  0.105161918386
 H1 0.705286 0.271895 0.00959  0.105161918386
 H1 0.209817 0.448368 0.  0.105161918386
 H1 0.709809 0.448367 0.  0.105161918386
 H1 0.372729 0.147784 0.08644  0.105161918386
 H1 0.872721 0.147783 0.08644  0.105161918386
 H1 0.367773 0.969129 0.09244  0.105161918386
 H1 0.867765 0.969129 0.0924  0.105161918386
 H1 0.223892 0.943969 0.93864  0.105161918386
 H1 0.723884 0.943968 0.93864  0.105161918386
 H1 0.220708 0.122072 0.9282  0.105161918386
 H1 0.7207 0.122071 0.92822  0.105161918386
 C1 0.121857 0.299391 0.1181  0.650006341463
 C1 0.621848 0.299391 0.1181  0.650006341463
 C2 0.160173 0.299117 0.19431  -0.00221865853659
 C2 0.660165 0.299117 0.19431  -0.00221865853659
 C3 0.200351 0.225227 0.19988  -0.1149747949
 C3 0.700344 0.225226 0.19988  -0.1149747949
 C3 0.236318 0.226013 0.27038  -0.1149747949
 C3 0.73631 0.226012 0.27038  -0.1149747949
 C2 0.231239 0.298564 0.33874  -0.00221865853659
 C2 0.731231 0.298563 0.33874  -0.00221865853659
 C3 0.190075 0.371164 0.33347  -0.1149747949
 C3 0.690067 0.371163 0.33347  -0.1149747949
 C3 0.155734 0.372738 0.26149  -0.1149747949
 C3 0.655727 0.372738 0.26149  -0.1149747949
 C2 0.26659 0.298072 0.41692  -0.00221865853659
 C2 0.766582 0.298071 0.41692  -0.00221865853659
 C2 0.327271 0.298719 0.41592  -0.00221865853659
 C2 0.827263 0.298719 0.41592  -0.00221865853659
 C3 0.356609 0.297571 0.49336  -0.1149747949
 C3 0.856601 0.29757 0.49336  -0.1149747949
 C2 0.328473 0.295522 0.57166  -0.00221865853659
 C2 0.828465 0.295522 0.57166  -0.00221865853659
 C2 0.267803 0.294196 0.57247  -0.00221865853659
 C2 0.767795 0.294195 0.57247  -0.00221865853659
 C3 0.238442 0.29564 0.49515  -0.1149747949
 C3 0.738434 0.295639 0.49515  -0.1149747949
 C2 0.363664 0.294303 0.64992  -0.00221865853659
 C2 0.863656 0.294302 0.64992  -0.00221865853659
 C3 0.405265 0.365973 0.66935  -0.1149747949
 C3 0.905256 0.365972 0.66935  -0.1149747949
 C3 0.439449 0.366418 0.74164  -0.1149747949
 C3 0.939441 0.366418 0.74164  -0.1149747949
 C2 0.434403 0.292527 0.79468  -0.00221865853659
 C2 0.934395 0.292527 0.79468  -0.00221865853659
 C3 0.393659 0.21966 0.77495  -0.1149747949
 C3 0.893651 0.21966 0.77495  -0.1149747949
 C3 0.357925 0.221554 0.70442  -0.1149747949
 C3 0.857916 0.221553 0.70442  -0.1149747949
 C2 0.361476 0.301377 0.33684  -0.00221865853659
 C2 0.861467 0.301376 0.33684  -0.00221865853659
 C3 0.40416 0.231532 0.31677  -0.1149747949
 C3 0.904152 0.231531 0.31677  -0.1149747949
 C3 0.437937 0.233555 0.24434  -0.1149747949
 C3 0.93793 0.233555 0.24434  -0.1149747949
 C2 0.431108 0.307169 0.19122  -0.00221865853659
 C2 0.9311 0.307169 0.19122  -0.00221865853659
 C3 0.389174 0.378 0.21150  -0.1149747949
 C3 0.889166 0.378 0.21150  -0.1149747949
 C3 0.35416 0.37409 0.28264  -0.1149747949
 C3 0.854152 0.374089 0.28264  -0.1149747949
 C2 0.233673 0.29324 0.65184  -0.00221865853659
 C2 0.733665 0.293239 0.65184  -0.00221865853659
 C3 0.194577 0.218204 0.65987  -0.1149747949
 C3 0.694569 0.218203 0.65987  -0.1149747949
 C3 0.161041 0.21733 0.7327  -0.1149747949
 C3 0.661032 0.21733 0.73275  -0.1149747949
 C2 0.164405 0.293175 0.79827  -0.00221865853659
 C2 0.664397 0.293175 0.79827  -0.00221865853659
 C3 0.202685 0.369134 0.78996  -0.1149747949
 C3 0.702677 0.369134 0.78996  -0.1149747949
 C3 0.237675 0.368162 0.71833  -0.1149747949
 C3 0.737667 0.368161 0.71833  -0.1149747949
 C4 0.09821 0.597491 0.01134  0.157576341463
 C4 0.598202 0.597491 0.01134  0.157576341463
 C3 0.099587 0.696236 0.00769  -0.1149747949
 C3 0.59958 0.696235 0.00769  -0.1149747949
 C2 0.047916 0.745817 0.99969  -0.00221865853659
 C2 0.547909 0.745817 0.99969  -0.00221865853659
 C3 0.496623 0.693286 0.9964  -0.1149747949
 C3 0.996615 0.693286 0.9964  -0.1149747949
 C4 0.998874 0.594485 0.99872  0.157576341463
 C4 0.498867 0.594484 0.99872  0.157576341463
 C2 0.047259 0.850509 0.99435  -0.00221865853659
 C2 0.547252 0.850509 0.99435  -0.00221865853659
 C3 0.089251 0.894692 0.94785  -0.1149747949
 C3 0.589244 0.894692 0.94785  -0.1149747949
 C4 0.086845 0.9934 0.94402  0.157576341463
 C4 0.586838 0.9934 0.9440  0.157576341463
 C4 0.005372 0.007333 0.02914  0.157576341463
 C4 0.505364 0.007333 0.02914  0.157576341463
 C3 0.004219 0.908952 0.03486  -0.1149747949
 C3 0.504211 0.908951 0.03486  -0.1149747949
 C1 0.126067 0.292948 0.87445  0.650006341463
 C1 0.626059 0.292948 0.87445  0.650006341463
 C1 0.469246 0.308464 0.11492  0.650006341463
 C1 0.969237 0.308464 0.11492  0.650006341463
 C1 0.472765 0.291865 0.87070  0.650006341463
 C1 0.972758 0.291864 0.87070  0.650006341463
 C1 0.371838 0.700579 0.88179  0.650006341463
 C1 0.87183 0.700579 0.88179  0.650006341463
 C2 0.410155 0.700846 0.80565  -0.00221865853659
 C2 0.910145 0.700848 0.80565  -0.00221865853659
 C3 0.450309 0.774722 0.80008  -0.1149747949
 C3 0.950299 0.774724 0.80008  -0.1149747949
 C3 0.486277 0.773932 0.72959  -0.1149747949
 C3 0.986268 0.773933 0.72959  -0.1149747949
 C2 0.481223 0.701394 0.66122  -0.00221865853659
 C2 0.981215 0.701394 0.66122  -0.00221865853659
 C3 0.440082 0.628812 0.66648  -0.1149747949
 C3 0.940073 0.628812 0.66648  -0.1149747949
 C3 0.405739 0.627241 0.7384  -0.1149747949
 C3 0.905729 0.627242 0.73846  -0.1149747949
 C2 0.016586 0.701889 0.5830  -0.00221865853659
 C2 0.516578 0.701888 0.58303  -0.00221865853659
 C2 0.077268 0.701267 0.58404  -0.00221865853659
 C2 0.57726 0.701265 0.58404  -0.00221865853659
 C3 0.106607 0.702429 0.50659  -0.1149747949
 C3 0.606599 0.702427 0.50659  -0.1149747949
 C2 0.078471 0.704472 0.42830  -0.00221865853659
 C2 0.578463 0.704471 0.42830  -0.00221865853659
 C2 0.017801 0.705769 0.42748  -0.00221865853659
 C2 0.517793 0.705769 0.42748  -0.00221865853659
 C3 0.488431 0.704311 0.50481  -0.1149747949
 C3 0.988422 0.704311 0.50481  -0.1149747949
 C2 0.113663 0.705707 0.35004  -0.00221865853659
 C2 0.613656 0.705708 0.35004  -0.00221865853659
 C3 0.155294 0.634032 0.33059  -0.1149747949
 C3 0.655286 0.634032 0.33059  -0.1149747949
 C3 0.18948 0.633598 0.25830  -0.1149747949
 C3 0.689472 0.633597 0.25830  -0.1149747949
 C2 0.184403 0.707506 0.2052  -0.00221865853659
 C2 0.684395 0.707506 0.20528  -0.00221865853659
 C3 0.143633 0.780384 0.22503  -0.1149747949
 C3 0.643625 0.780383 0.22503  -0.1149747949
 C3 0.107896 0.778477 0.29556  -0.1149747949
 C3 0.607888 0.778477 0.29556  -0.1149747949
 C2 0.111472 0.698619 0.66311  -0.00221865853659
 C2 0.611463 0.698618 0.66311  -0.00221865853659
 C3 0.154128 0.768457 0.6831  -0.1149747949
 C3 0.65412 0.768455 0.6831  -0.1149747949
 C3 0.187903 0.766446 0.75560  -0.1149747949
 C3 0.687895 0.766444 0.75560  -0.1149747949
 C2 0.1811 0.692852 0.80874  -0.00221865853659
 C2 0.681092 0.69285 0.80874  -0.00221865853659
 C3 0.139193 0.62203 0.78848  -0.1149747949
 C3 0.639186 0.622029 0.78848  -0.1149747949
 C3 0.104182 0.625926 0.71734  -0.1149747949
 C3 0.604175 0.625925 0.71734  -0.1149747949
 C2 0.483668 0.706721 0.34811  -0.00221865853659
 C2 0.983659 0.706719 0.34811  -0.00221865853659
 C3 0.444556 0.781781 0.34007  -0.1149747949
 C3 0.944547 0.78178 0.34007  -0.1149747949
 C3 0.411023 0.782652 0.26719  -0.1149747949
 C3 0.911014 0.782651 0.26719  -0.1149747949
 C2 0.414401 0.706782 0.20169  -0.00221865853659
 C2 0.914393 0.706782 0.20169  -0.00221865853659
 C3 0.4527 0.630802 0.21001  -0.1149747949
 C3 0.952692 0.630802 0.21001  -0.1149747949
 C3 0.487689 0.631777 0.28164  -0.1149747949
 C3 0.987681 0.631777 0.28164  -0.1149747949
 C4 0.348238 0.402428 0.98864  0.157576341463
 C4 0.84823 0.402428 0.98864  0.157576341463
 C3 0.349607 0.303681 0.99229  -0.1149747949
 C3 0.849599 0.303681 0.99229  -0.1149747949
 C2 0.29793 0.254175 0.  -0.00221865853659
 C2 0.797922 0.254174 0.  -0.00221865853659
 C3 0.246647 0.306782 0.  -0.1149747949
 C3 0.746639 0.306781 0.  -0.1149747949
 C4 0.248898 0.405579 0.  0.157576341463
 C4 0.74889 0.405578 0.  0.157576341463
 C2 0.297263 0.149483 0.  -0.00221865853659
 C2 0.797255 0.149482 0.  -0.00221865853659
 C3 0.339233 0.105232 0.05211  -0.1149747949
 C3 0.839224 0.105232 0.05211  -0.1149747949
 C4 0.336807 0.0 0.05594  0.157576341463
 C4 0.836799 0.0 0.05594  0.157576341463
 C4 0.255355 0.992726 0.97082  0.157576341463
 C4 0.755347 0.992726 0.97082  0.157576341463
 C3 0.254223 0.091109 0.96510  -0.1149747949
 C3 0.754215 0.091109 0.96510  -0.1149747949
 C1 0.376061 0.707023 0.1255  0.650006341463
 C1 0.876052 0.707022 0.12552  0.650006341463
 C1 0.219233 0.691555 0.88504  0.650006341463
 C1 0.719224 0.691555 0.88504  0.650006341463
 C1 0.222763 0.708158 0.12926  0.650006341463
 C1 0.722756 0.708158 0.12926  0.650006341463
 N1 0.048764 0.546928 0.00602  -0.276188658537
 N1 0.548756 0.546928 0.00602  -0.276188658537
 N1 0.045949 0.049315 0.98451  -0.276188658537
 N1 0.545941 0.049314 0.9845  -0.276188658537
 N1 0.298793 0.453063 0.99394  -0.276188658537
 N1 0.798785 0.453063 0.99394  -0.276188658537
 N1 0.295909 0.950681 0.01546  -0.276188658537
 N1 0.795901 0.950681 0.01546  -0.276188658537
 O1 0.09718 0.378741 0.10734  -0.582488658537
 O1 0.597173 0.378741 0.10734  -0.582488658537
 O1 0.116956 0.220908 0.06957  -0.582488658537
 O1 0.616948 0.220908 0.06957  -0.582488658537
 O1 0.119715 0.37142 0.92230  -0.582488658537
 O1 0.619707 0.37142 0.92230  -0.582488658537
 O1 0.1022 0.212646 0.88554  -0.582488658537
 O1 0.602192 0.212646 0.88554  -0.582488658537
 O1 0.493295 0.228443 0.08874  -0.582488658537
 O1 0.993288 0.228443 0.08874  -0.582488658537
 O1 0.475201 0.386992 0.08173  -0.582488658537
 O1 0.975193 0.386992 0.08173  -0.582488658537
 O1 0.497654 0.370991 0.8963  -0.582488658537
 O1 0.997646 0.370991 0.8963  -0.582488658537
 O1 0.477808 0.213248 0.90441  -0.582488658537
 O1 0.977799 0.213248 0.90441  -0.582488658537
 O1 0.347186 0.621243 0.89262  -0.582488658537
 O1 0.847177 0.621243 0.89262  -0.582488658537
 O1 0.366916 0.779063 0.93040  -0.582488658537
 O1 0.866906 0.779064 0.93040  -0.582488658537
 O1 0.369714 0.628552 0.0776  -0.582488658537
 O1 0.869707 0.628552 0.0776  -0.582488658537
 O1 0.352181 0.787345 0.11442  -0.582488658537
 O1 0.852174 0.787345 0.11442  -0.582488658537
 O1 0.243246 0.77157 0.91123  -0.582488658537
 O1 0.743238 0.77157 0.91123  -0.582488658537
 O1 0.225215 0.613023 0.91823  -0.582488658537
 O1 0.725207 0.613022 0.91823  -0.582488658537
 O1 0.247664 0.629008 0.1035  -0.582488658537
 O1 0.747655 0.629008 0.10356  -0.582488658537
 O1 0.227797 0.786776 0.09556  -0.582488658537
 O1 0.727788 0.786776 0.09556  -0.582488658537
