#======================================================================

# CRYSTAL DATA

#----------------------------------------------------------------------

data_VESTA_phase_1


_pd_phase_name                         MOF
_cell_length_a                         22.20700
_cell_length_b                         14.00800
_cell_length_c                         16.17500
_cell_angle_alpha                      90.00000
_cell_angle_beta                       90.00000
_cell_angle_gamma                      90.00000
_symmetry_space_group_name_H-M         "P 1"
_symmetry_Int_Tables_number            1

loop_
_symmetry_equiv_pos_as_xyz
   "x, y, z"

loop_
   _atom_site_label
   _atom_site_fract_x
   _atom_site_fract_y
   _atom_site_fract_z
 _atom_site_charge
 Zn1 0.249993 0.901569 1e-0  0.907297804878
 Zn1 0.750001 0.901619 0.99999  0.907297804878
 Zn1 0.250004 0.098374 0.99999  0.907297804878
 Zn1 0.750005 0.098428 0.99999  0.907297804878
 H1 0.430806 0.847226 0.66489  0.103218638211
 H1 0.931142 0.84567 0.66404  0.103218638211
 H1 0.371858 0.848541 0.79664  0.103218638211
 H1 0.872204 0.84567 0.79580  0.103218638211
 H1 0.069195 0.152782 0.66489  0.103218638211
 H1 0.56889 0.15435 0.6640  0.103218638211
 H1 0.128128 0.151472 0.79665  0.103218638211
 H1 0.627833 0.15436 0.79577  0.103218638211
 H1 0.069113 0.847416 0.33515  0.103218638211
 H1 0.568858 0.845704 0.3359  0.103218638211
 H1 0.128058 0.848609 0.2034  0.103218638211
 H1 0.627806 0.845696 0.20422  0.103218638211
 H1 0.430833 0.152631 0.33519  0.103218638211
 H1 0.931136 0.154352 0.33598  0.103218638211
 H1 0.371888 0.151422 0.20344  0.103218638211
 H1 0.872199 0.154351 0.20421  0.103218638211
 H1 0.068876 0.154454 0.33594  0.103218638211
 H1 0.569177 0.152741 0.33515  0.103218638211
 H1 0.127817 0.1544 0.20418  0.103218638211
 H1 0.628119 0.151489 0.20340  0.103218638211
 H1 0.431112 0.845594 0.33597  0.103218638211
 H1 0.930849 0.847314 0.33514  0.103218638211
 H1 0.372171 0.84563 0.20421  0.103218638211
 H1 0.871916 0.848559 0.20338  0.103218638211
 H1 0.431175 0.154263 0.66401  0.103218638211
 H1 0.93088 0.152708 0.66490  0.103218638211
 H1 0.372222 0.154333 0.79576  0.103218638211
 H1 0.871937 0.151462 0.79665  0.103218638211
 H1 0.068832 0.845745 0.66401  0.103218638211
 H1 0.569192 0.847313 0.66485  0.103218638211
 H1 0.127771 0.84568 0.79577  0.103218638211
 H1 0.628138 0.848568 0.79660  0.103218638211
 H1 0.343001 0.747794 0.00072  0.103218638211
 H1 0.843051 0.747876 0.99917  0.103218638211
 H1 0.347565 0.571012 0.00059  0.103218638211
 H1 0.847653 0.571088 0.99925  0.103218638211
 H1 0.156952 0.252131 0.00069  0.103218638211
 H1 0.657001 0.252215 0.99914  0.103218638211
 H1 0.152352 0.428918 0.00058  0.103218638211
 H1 0.65244 0.428997 0.99923  0.103218638211
 H1 0.156951 0.747843 0.99932  0.103218638211
 H1 0.657001 0.747823 0.00084  0.103218638211
 H1 0.152351 0.57105 0.99940  0.103218638211
 H1 0.65244 0.571041 0.00075  0.103218638211
 H1 0.343003 0.252181 0.9992  0.103218638211
 H1 0.843051 0.252164 0.00084  0.103218638211
 H1 0.347565 0.428963 0.99940  0.103218638211
 H1 0.847652 0.428952 0.00075  0.103218638211
 C1 0.418399 0.914647 0.6939  -0.113032195122
 C1 0.91859 0.912803 0.69351  -0.113032195122
 C1 0.385675 0.915035 0.76737  -0.113032195122
 C1 0.885873 0.912461 0.76691  -0.113032195122
 C1 0.081606 0.085363 0.69398  -0.113032195122
 C1 0.581445 0.087221 0.69349  -0.113032195122
 C1 0.114321 0.084977 0.76738  -0.113032195122
 C1 0.614166 0.087568 0.76688  -0.113032195122
 C1 0.081555 0.91481 0.30604  -0.113032195122
 C1 0.581415 0.912835 0.30651  -0.113032195122
 C1 0.114273 0.91513 0.23265  -0.113032195122
 C1 0.61414 0.912487 0.23311  -0.113032195122
 C1 0.418407 0.085233 0.30607  -0.113032195122
 C1 0.918582 0.087219 0.30651  -0.113032195122
 C1 0.385686 0.084904 0.23268  -0.113032195122
 C1 0.885864 0.087562 0.23311  -0.113032195122
 C1 0.081422 0.087309 0.30648  -0.113032195122
 C1 0.581595 0.085334 0.30605  -0.113032195122
 C1 0.11414 0.087622 0.23308  -0.113032195122
 C1 0.614318 0.08498 0.23266  -0.113032195122
 C1 0.418563 0.912735 0.30651  -0.113032195122
 C1 0.91842 0.91472 0.30604  -0.113032195122
 C1 0.385842 0.912412 0.23311  -0.113032195122
 C1 0.885704 0.915069 0.23265  -0.113032195122
 C1 0.418605 0.087145 0.69349  -0.113032195122
 C1 0.918444 0.085301 0.69399  -0.113032195122
 C1 0.385878 0.087527 0.76689  -0.113032195122
 C1 0.885726 0.084953 0.76738  -0.113032195122
 C1 0.081402 0.912864 0.69349  -0.113032195122
 C1 0.581612 0.914721 0.69395  -0.113032195122
 C1 0.114121 0.912485 0.76689  -0.113032195122
 C1 0.614334 0.915075 0.76734  -0.113032195122
 C2 0.437873 0.999851 0.50002  0.018117804878
 C2 0.937872 0.999968 0.50001  0.018117804878
 C2 0.062135 0.000153 0.50000  0.018117804878
 C2 0.562139 4.8e-05 0.50000  0.018117804878
 C3 0.249957 0.552985 0.  -0.00690219512195
 C3 0.750047 0.553019 2e-0  -0.00690219512195
 C3 0.249958 0.446986 0.99999  -0.00690219512195
 C3 0.750047 0.44702 0.99999  -0.00690219512195
 C3 0.468229 0.000298 0.5761  -0.00690219512195
 C3 0.968226 0.999614 0.57610  -0.00690219512195
 C3 0.434787 0.000689 0.65597  -0.00690219512195
 C3 0.934795 0.999214 0.65598  -0.00690219512195
 C3 0.368817 0.00146 0.80429  -0.00690219512195
 C3 0.868835 0.99852 0.80430  -0.00690219512195
 C4 0.330415 0.001809 0.88057  0.706217804878
 C4 0.830428 0.998192 0.88058  0.706217804878
 C3 0.031788 0.999693 0.57610  -0.00690219512195
 C3 0.531794 0.000382 0.57610  -0.00690219512195
 C3 0.06523 0.999293 0.65596  -0.00690219512195
 C3 0.565244 0.000781 0.65596  -0.00690219512195
 C3 0.131181 0.998526 0.80430  -0.00690219512195
 C3 0.631211 0.001485 0.80427  -0.00690219512195
 C4 0.169586 0.998179 0.8805  0.706217804878
 C4 0.669598 0.001819 0.88057  0.706217804878
 C3 0.031781 0.000503 0.42391  -0.00690219512195
 C3 0.531783 0.999612 0.42391  -0.00690219512195
 C3 0.065214 0.000885 0.34404  -0.00690219512195
 C3 0.565222 0.999248 0.34404  -0.00690219512195
 C3 0.131167 0.001522 0.19571  -0.00690219512195
 C3 0.6312 0.998543 0.19573  -0.00690219512195
 C4 0.169583 0.001822 0.11944  0.706217804878
 C4 0.669586 0.998204 0.11944  0.706217804878
 C3 0.468218 0.999519 0.42392  -0.00690219512195
 C3 0.968219 0.000414 0.42392  -0.00690219512195
 C3 0.434769 0.999137 0.34406  -0.00690219512195
 C3 0.93478 0.000781 0.34405  -0.00690219512195
 C3 0.368809 0.99848 0.19573  -0.00690219512195
 C3 0.868815 0.001477 0.19573  -0.00690219512195
 C4 0.33041 0.998168 0.11945  0.706217804878
 C4 0.830427 0.001809 0.11943  0.706217804878
 C5 0.302055 0.704866 0.0003  0.169377804878
 C5 0.802115 0.704925 0.99958  0.169377804878
 C1 0.303786 0.605791 0.00032  -0.113032195122
 C1 0.803867 0.605848 0.99960  -0.113032195122
 C5 0.19789 0.295081 0.00034  0.169377804878
 C5 0.697948 0.295141 0.99956  0.169377804878
 C1 0.196138 0.394158 0.0003  -0.113032195122
 C1 0.696218 0.394216 0.9995  -0.113032195122
 C5 0.197887 0.704888 0.99965  0.169377804878
 C5 0.697948 0.704898 0.00042  0.169377804878
 C1 0.196137 0.605811 0.99968  -0.113032195122
 C1 0.696218 0.605822 0.00040  -0.113032195122
 C5 0.302058 0.295113 0.99966  0.169377804878
 C5 0.802117 0.295121 0.  0.169377804878
 C1 0.303787 0.394182 0.99967  -0.113032195122
 C1 0.803867 0.394192 0.00040  -0.113032195122
 Br1 0.351229 0.999702 0.50003  -0.081252195122
 Br1 0.851228 0.999844 0.50002  -0.081252195122
 Br1 0.148779 0.000297 0.49999  -0.081252195122
 Br1 0.648784 0.000183 0.49999  -0.081252195122
 N1 0.249975 0.753956 6e-0  -0.232612195122
 N1 0.750026 0.75399 6e-0  -0.232612195122
 N1 0.249978 0.246014 0.99999  -0.232612195122
 N1 0.750026 0.24605 0.99999  -0.232612195122
 O1 0.314873 0.920907 0.90969  -0.605682195122
 O1 0.815042 0.917092 0.90947  -0.605682195122
 O1 0.185125 0.07911 0.90969  -0.605682195122
 O1 0.68497 0.082947 0.90946  -0.605682195122
 O1 0.185112 0.920909 0.09034  -0.605682195122
 O1 0.684964 0.9171 0.09055  -0.605682195122
 O1 0.314882 0.079106 0.09034  -0.605682195122
 O1 0.815041 0.082937 0.09055  -0.605682195122
 O1 0.184964 0.082943 0.09054  -0.605682195122
 O1 0.685128 0.079135 0.09033  -0.605682195122
 O1 0.315032 0.917071 0.09054  -0.605682195122
 O1 0.81488 0.920903 0.09033  -0.605682195122
 O1 0.315043 0.082941 0.90946  -0.605682195122
 O1 0.814887 0.079126 0.90968  -0.605682195122
 O1 0.184956 0.917076 0.90947  -0.605682195122
 O1 0.685127 0.920912 0.90968  -0.605682195122
