#======================================================================

# CRYSTAL DATA

#----------------------------------------------------------------------

data_VESTA_phase_1


_pd_phase_name                         MOF
_cell_length_a                         23.41600
_cell_length_b                         15.73400
_cell_length_c                         18.04600
_cell_angle_alpha                      88.64000
_cell_angle_beta                       89.84600
_cell_angle_gamma                      90.01000
_symmetry_space_group_name_H-M         "P 1"
_symmetry_Int_Tables_number            1

loop_
_symmetry_equiv_pos_as_xyz
   "x, y, z"

loop_
   _atom_site_label
   _atom_site_fract_x
   _atom_site_fract_y
   _atom_site_fract_z
 _atom_site_charge
 Zn1 0.12994 0.507098 0.7828  0.881979034091
 Zn1 0.62993 0.507116 0.78374  0.881979034091
 Zn1 0.129919 0.502372 0.93789  0.881979034091
 Zn1 0.62992 0.50283 0.93836  0.881979034091
 Zn1 0.37844 0.492593 0.2183  0.881979034091
 Zn1 0.878444 0.492556 0.21826  0.881979034091
 Zn1 0.379862 0.496756 0.0627  0.881979034091
 Zn1 0.879757 0.496785 0.06261  0.881979034091
 H1 0.037037 0.488297 0.1957  0.0991224956294
 H1 0.537034 0.488651 0.19625  0.0991224956294
 H1 0.222023 0.501867 0.19513  0.0991224956294
 H1 0.722031 0.50168 0.19560  0.0991224956294
 H1 0.485063 0.001514 0.85297  0.0991224956294
 H1 0.985079 0.001914 0.85237  0.0991224956294
 H1 0.274688 0.007782 0.85036  0.0991224956294
 H1 0.774704 0.008099 0.85053  0.0991224956294
 H1 0.201328 0.75868 0.94662  0.0991224956294
 H1 0.70132 0.759493 0.94692  0.0991224956294
 H1 0.057118 0.245589 0.94949  0.0991224956294
 H1 0.556954 0.245346 0.95031  0.0991224956294
 H1 0.26128 0.889799 0.94203  0.0991224956294
 H1 0.761461 0.890434 0.94216  0.0991224956294
 H1 0.496693 0.114889 0.94514  0.0991224956294
 H1 0.996834 0.115101 0.94446  0.0991224956294
 H1 0.291139 0.66552 0.7573  0.0991224956294
 H1 0.790725 0.666041 0.75745  0.0991224956294
 H1 0.470904 0.347865 0.75839  0.0991224956294
 H1 0.970665 0.348217 0.75791  0.0991224956294
 H1 0.355599 0.791298 0.75831  0.0991224956294
 H1 0.85532 0.791693 0.75816  0.0991224956294
 H1 0.406132 0.222392 0.75844  0.0991224956294
 H1 0.905881 0.222695 0.75813  0.0991224956294
 H1 0.040876 0.492149 0.05806  0.0991224956294
 H1 0.540848 0.492614 0.05859  0.0991224956294
 H1 0.218338 0.504527 0.05749  0.0991224956294
 H1 0.718326 0.504493 0.05799  0.0991224956294
 H1 0.054093 0.753347 0.76227  0.0991224956294
 H1 0.554074 0.753073 0.76276  0.0991224956294
 H1 0.20711 0.262699 0.76094  0.0991224956294
 H1 0.707019 0.263331 0.76155  0.0991224956294
 H1 0.465584 0.664889 0.95905  0.0991224956294
 H1 0.965811 0.665211 0.95873  0.0991224956294
 H1 0.293014 0.33742 0.95938  0.0991224956294
 H1 0.793378 0.337835 0.95972  0.0991224956294
 H1 0.492898 0.88287 0.75816  0.0991224956294
 H1 0.99291 0.883117 0.75777  0.0991224956294
 H1 0.268215 0.133022 0.75610  0.0991224956294
 H1 0.767985 0.133556 0.75645  0.0991224956294
 H1 0.402247 0.790571 0.95192  0.0991224956294
 H1 0.902516 0.790916 0.95177  0.0991224956294
 H1 0.356266 0.21208 0.9521  0.0991224956294
 H1 0.856527 0.21243 0.95217  0.0991224956294
 H1 0.049599 0.432316 0.52844  0.0991224956294
 H1 0.549601 0.432473 0.52906  0.0991224956294
 H1 0.208591 0.571826 0.52138  0.0991224956294
 H1 0.708795 0.571486 0.52206  0.0991224956294
 H1 0.052307 0.441572 0.66695  0.0991224956294
 H1 0.552291 0.441744 0.66754  0.0991224956294
 H1 0.206019 0.571741 0.66039  0.0991224956294
 H1 0.706149 0.571539 0.66102  0.0991224956294
 H1 0.287887 0.510373 0.80506  0.0991224956294
 H1 0.787852 0.510969 0.80488  0.0991224956294
 H1 0.472841 0.498965 0.80541  0.0991224956294
 H1 0.972807 0.499439 0.8052  0.0991224956294
 H1 0.234287 0.997842 0.14687  0.0991224956294
 H1 0.734351 0.997759 0.14687  0.0991224956294
 H1 0.023903 0.991559 0.14928  0.0991224956294
 H1 0.523958 0.99156 0.14986  0.0991224956294
 H1 0.450871 0.240483 0.05391  0.0991224956294
 H1 0.950641 0.2401 0.05313  0.0991224956294
 H1 0.306343 0.753261 0.05015  0.0991224956294
 H1 0.806216 0.75305 0.05015  0.0991224956294
 H1 0.010952 0.109381 0.05744  0.0991224956294
 H1 0.51095 0.109546 0.0581  0.0991224956294
 H1 0.245929 0.883648 0.05459  0.0991224956294
 H1 0.745854 0.88349 0.05464  0.0991224956294
 H1 0.039251 0.333279 0.24264  0.0991224956294
 H1 0.539704 0.333286 0.24339  0.0991224956294
 H1 0.220425 0.652639 0.24342  0.0991224956294
 H1 0.720456 0.652602 0.24361  0.0991224956294
 H1 0.104188 0.207987 0.24140  0.0991224956294
 H1 0.604472 0.207792 0.24200  0.0991224956294
 H1 0.155339 0.777931 0.24263  0.0991224956294
 H1 0.655427 0.77796 0.24288  0.0991224956294
 H1 0.291209 0.506338 0.94290  0.0991224956294
 H1 0.791163 0.506705 0.94270  0.0991224956294
 H1 0.468729 0.496109 0.94315  0.0991224956294
 H1 0.968685 0.496468 0.94296  0.0991224956294
 H1 0.302661 0.246117 0.23811  0.0991224956294
 H1 0.802754 0.246187 0.23808  0.0991224956294
 H1 0.456307 0.736542 0.24034  0.0991224956294
 H1 0.956243 0.736558 0.24001  0.0991224956294
 H1 0.21521 0.335384 0.04200  0.0991224956294
 H1 0.715058 0.335367 0.04214  0.0991224956294
 H1 0.042953 0.660909 0.04185  0.0991224956294
 H1 0.542913 0.661005 0.04208  0.0991224956294
 H1 0.241718 0.11604 0.24172  0.0991224956294
 H1 0.741882 0.116023 0.24180  0.0991224956294
 H1 0.017058 0.866591 0.2440  0.0991224956294
 H1 0.51713 0.866562 0.24441  0.0991224956294
 H1 0.152064 0.209437 0.04820  0.0991224956294
 H1 0.651965 0.209328 0.04846  0.0991224956294
 H1 0.105885 0.786667 0.0483  0.0991224956294
 H1 0.605892 0.786709 0.04860  0.0991224956294
 H1 0.289445 0.527988 0.4756  0.0991224956294
 H1 0.789366 0.527596 0.47543  0.0991224956294
 H1 0.469602 0.468356 0.47580  0.0991224956294
 H1 0.969701 0.469108 0.47565  0.0991224956294
 H1 0.292335 0.523128 0.33735  0.0991224956294
 H1 0.792301 0.522578 0.33714  0.0991224956294
 H1 0.464706 0.462539 0.33767  0.0991224956294
 H1 0.964845 0.463056 0.33754  0.0991224956294
 C1 0.242534 0.703781 0.852  -0.0138859659091
 C1 0.742355 0.704416 0.85273  -0.0138859659091
 C1 0.017628 0.305079 0.85417  -0.0138859659091
 C1 0.517677 0.304839 0.85483  -0.0138859659091
 C2 0.204966 0.626856 0.85417  0.659249034091
 C2 0.704855 0.627423 0.8546  0.659249034091
 C2 0.055258 0.381761 0.85624  0.659249034091
 C2 0.555305 0.381581 0.85690  0.659249034091
 C1 0.312968 0.849297 0.85068  -0.0138859659091
 C1 0.812944 0.849742 0.85069  -0.0138859659091
 C1 0.44687 0.159886 0.85221  -0.0138859659091
 C1 0.946845 0.160184 0.85173  -0.0138859659091
 C1 0.44324 0.845892 0.85463  -0.0138859659091
 C1 0.94332 0.846199 0.85432  -0.0138859659091
 C1 0.316572 0.163363 0.85371  -0.0138859659091
 C1 0.816598 0.163772 0.85388  -0.0138859659091
 C3 0.078077 0.492005 0.16737  -0.107632102273
 C3 0.578072 0.492267 0.16789  -0.107632102273
 C3 0.181027 0.499597 0.16  -0.107632102273
 C3 0.681021 0.499553 0.16750  -0.107632102273
 C1 0.409062 0.925374 0.85224  -0.0138859659091
 C1 0.909105 0.925685 0.85196  -0.0138859659091
 C1 0.350684 0.083911 0.85158  -0.0138859659091
 C1 0.850678 0.084282 0.85154  -0.0138859659091
 C2 0.053185 0.625532 0.86235  0.659249034091
 C2 0.553117 0.625443 0.86289  0.659249034091
 C2 0.206788 0.383575 0.86268  0.659249034091
 C2 0.706906 0.38408 0.86317  0.659249034091
 C1 0.014058 0.700926 0.86044  -0.0138859659091
 C1 0.51393 0.700703 0.86087  -0.0138859659091
 C1 0.245955 0.308365 0.86015  -0.0138859659091
 C1 0.746088 0.308891 0.86062  -0.0138859659091
 C3 0.438486 0.002935 0.85233  -0.107632102273
 C3 0.9385 0.003272 0.85190  -0.107632102273
 C3 0.321267 0.006351 0.85083  -0.107632102273
 C3 0.821284 0.006712 0.85086  -0.107632102273
 C1 0.348675 0.927134 0.85119  -0.0138859659091
 C1 0.84871 0.9275 0.85111  -0.0138859659091
 C1 0.411078 0.082138 0.85205  -0.0138859659091
 C1 0.911067 0.082456 0.85171  -0.0138859659091
 C3 0.234393 0.767246 0.90458  -0.107632102273
 C3 0.734338 0.76794 0.90479  -0.107632102273
 C3 0.02474 0.239159 0.90680  -0.107632102273
 C3 0.524662 0.238929 0.90751  -0.107632102273
 C3 0.268308 0.839808 0.90229  -0.107632102273
 C3 0.768346 0.840399 0.90241  -0.107632102273
 C3 0.490558 0.16672 0.90488  -0.107632102273
 C3 0.990631 0.166959 0.90425  -0.107632102273
 C3 0.285656 0.714099 0.79884  -0.107632102273
 C3 0.785382 0.714636 0.79893  -0.107632102273
 C3 0.475499 0.297286 0.80024  -0.107632102273
 C3 0.975337 0.297593 0.7997  -0.107632102273
 C3 0.321301 0.784906 0.7990  -0.107632102273
 C3 0.821105 0.785357 0.79900  -0.107632102273
 C3 0.439667 0.226716 0.79997  -0.107632102273
 C3 0.939509 0.227022 0.79953  -0.107632102273
 C4 0.080013 0.493601 0.09038  0.160299034091
 C4 0.579995 0.493945 0.09090  0.160299034091
 C4 0.179179 0.501623 0.09006  0.160299034091
 C4 0.679165 0.501683 0.0905  0.160299034091
 C1 0.129538 0.495188 0.20675  -0.0138859659091
 C1 0.629539 0.495258 0.20728  -0.0138859659091
 C3 0.020988 0.762718 0.80378  -0.107632102273
 C3 0.520921 0.762457 0.80420  -0.107632102273
 C3 0.239708 0.250467 0.80279  -0.107632102273
 C3 0.739694 0.251016 0.80327  -0.107632102273
 C3 0.471036 0.711812 0.91422  -0.107632102273
 C3 0.971225 0.712117 0.91388  -0.107632102273
 C3 0.288131 0.293556 0.91402  -0.107632102273
 C3 0.788364 0.294011 0.91435  -0.107632102273
 C5 0.12967 0.494596 0.28830  0.341099034091
 C5 0.629699 0.494595 0.28885  0.341099034091
 C3 0.486646 0.834577 0.80182  -0.107632102273
 C3 0.986687 0.834846 0.80145  -0.107632102273
 C3 0.273942 0.178383 0.80028  -0.107632102273
 C3 0.773859 0.178879 0.80062  -0.107632102273
 C3 0.435573 0.782909 0.91033  -0.107632102273
 C3 0.935761 0.783233 0.91006  -0.107632102273
 C3 0.32355 0.222635 0.91005  -0.107632102273
 C3 0.823728 0.223028 0.91022  -0.107632102273
 C5 0.129482 0.497889 0.43194  0.341099034091
 C5 0.629566 0.497801 0.43252  0.341099034091
 C1 0.129148 0.501517 0.5135  -0.0138859659091
 C1 0.629244 0.501431 0.51413  -0.0138859659091
 C3 0.084634 0.464634 0.55531  -0.107632102273
 C3 0.584679 0.464698 0.55592  -0.107632102273
 C3 0.173536 0.541508 0.55145  -0.107632102273
 C3 0.67367 0.541298 0.5520  -0.107632102273
 C4 0.085968 0.468943 0.63206  0.160299034091
 C4 0.585997 0.469043 0.63268  0.160299034091
 C4 0.172228 0.542351 0.62839  0.160299034091
 C4 0.672327 0.542208 0.62903  0.160299034091
 C1 0.49166 0.295261 0.14810  -0.0138859659091
 C1 0.991296 0.295057 0.14734  -0.0138859659091
 C1 0.267008 0.694647 0.14627  -0.0138859659091
 C1 0.76696 0.69453 0.14636  -0.0138859659091
 C2 0.454065 0.372186 0.14628  0.659249034091
 C2 0.953608 0.37188 0.14558  0.659249034091
 C2 0.304626 0.617847 0.14459  0.659249034091
 C2 0.804584 0.617749 0.14462  0.659249034091
 C1 0.062139 0.14997 0.148  -0.0138859659091
 C1 0.562272 0.149966 0.14952  -0.0138859659091
 C1 0.196073 0.83948 0.14811  -0.0138859659091
 C1 0.696086 0.83941 0.14826  -0.0138859659091
 C1 0.192509 0.153547 0.14535  -0.0138859659091
 C1 0.69256 0.153487 0.14552  -0.0138859659091
 C1 0.065829 0.835841 0.14657  -0.0138859659091
 C1 0.565861 0.835842 0.14688  -0.0138859659091
 C3 0.328789 0.507144 0.83350  -0.107632102273
 C3 0.828758 0.50766 0.83331  -0.107632102273
 C3 0.431765 0.500691 0.83368  -0.107632102273
 C3 0.931729 0.501148 0.83350  -0.107632102273
 C1 0.158316 0.074022 0.14743  -0.0138859659091
 C1 0.658387 0.073953 0.14769  -0.0138859659091
 C1 0.099885 0.915404 0.14834  -0.0138859659091
 C1 0.599928 0.915381 0.14867  -0.0138859659091
 C2 0.302082 0.374577 0.13876  0.659249034091
 C2 0.801988 0.374636 0.13876  0.659249034091
 C2 0.456483 0.614968 0.13929  0.659249034091
 C2 0.956494 0.614852 0.13911  0.659249034091
 C1 0.262988 0.299129 0.14020  -0.0138859659091
 C1 0.762949 0.299133 0.14025  -0.0138859659091
 C1 0.495554 0.690362 0.14132  -0.0138859659091
 C1 0.995533 0.690303 0.14105  -0.0138859659091
 C3 0.187706 0.996443 0.14745  -0.107632102273
 C3 0.687769 0.996376 0.14759  -0.107632102273
 C3 0.070484 0.992974 0.14883  -0.107632102273
 C3 0.570539 0.992952 0.14931  -0.107632102273
 C1 0.097917 0.072215 0.14839  -0.0138859659091
 C1 0.597994 0.07217 0.14886  -0.0138859659091
 C1 0.16028 0.917225 0.14791  -0.0138859659091
 C1 0.660322 0.917176 0.14811  -0.0138859659091
 C3 0.483796 0.231889 0.09590  -0.107632102273
 C3 0.983558 0.231639 0.09515  -0.107632102273
 C3 0.273989 0.760041 0.09304  -0.107632102273
 C3 0.773907 0.759888 0.093  -0.107632102273
 C3 0.017683 0.159315 0.09728  -0.107632102273
 C3 0.517784 0.159445 0.09798  -0.107632102273
 C3 0.239813 0.832196 0.09527  -0.107632102273
 C3 0.739763 0.832069 0.09535  -0.107632102273
 C3 0.034226 0.284862 0.20098  -0.107632102273
 C3 0.534578 0.284908 0.20171  -0.107632102273
 C3 0.224795 0.702707 0.20104  -0.107632102273
 C3 0.724807 0.70264 0.20120  -0.107632102273
 C3 0.070071 0.214292 0.20067  -0.107632102273
 C3 0.570323 0.214223 0.2013  -0.107632102273
 C3 0.188886 0.773186 0.20093  -0.107632102273
 C3 0.688928 0.773153 0.20112  -0.107632102273
 C4 0.330449 0.505387 0.91048  0.160299034091
 C4 0.830409 0.505803 0.91029  0.160299034091
 C4 0.429671 0.498565 0.91062  0.160299034091
 C4 0.929623 0.498944 0.91045  0.160299034091
 C1 0.38039 0.504665 0.79403  -0.0138859659091
 C1 0.880361 0.505176 0.79384  -0.0138859659091
 C3 0.269764 0.236942 0.19651  -0.107632102273
 C3 0.76982 0.236957 0.19654  -0.107632102273
 C3 0.489019 0.748647 0.1983  -0.107632102273
 C3 0.988969 0.74864 0.19807  -0.107632102273
 C3 0.220467 0.288189 0.08662  -0.107632102273
 C3 0.72038 0.288159 0.08674  -0.107632102273
 C3 0.037842 0.70502 0.08702  -0.107632102273
 C3 0.537831 0.705093 0.08727  -0.107632102273
 C5 0.38067 0.505711 0.71244  0.341099034091
 C5 0.880653 0.506228 0.71225  0.341099034091
 C3 0.23561 0.164646 0.19834  -0.107632102273
 C3 0.735711 0.16462 0.19842  -0.107632102273
 C3 0.023046 0.820953 0.20012  -0.107632102273
 C3 0.523095 0.82094 0.20045  -0.107632102273
 C3 0.185107 0.216907 0.08998  -0.107632102273
 C3 0.685063 0.216834 0.09016  -0.107632102273
 C3 0.073077 0.776203 0.09053  -0.107632102273
 C3 0.573091 0.77624 0.09081  -0.107632102273
 C5 0.380286 0.502683 0.56894  0.341099034091
 C5 0.880285 0.503009 0.56875  0.341099034091
 C1 0.379611 0.498753 0.48728  -0.0138859659091
 C1 0.879622 0.498948 0.48710  -0.0138859659091
 C3 0.32918 0.513904 0.44737  -0.107632102273
 C3 0.829153 0.513718 0.44717  -0.107632102273
 C3 0.429413 0.480064 0.44750  -0.107632102273
 C3 0.929482 0.480508 0.44734  -0.107632102273
 C4 0.330352 0.510627 0.37054  0.160299034091
 C4 0.830348 0.510343 0.37034  0.160299034091
 C4 0.427122 0.477336 0.370  0.160299034091
 C4 0.92721 0.477652 0.37054  0.160299034091
 N1 0.1296 0.498773 0.05221  -0.260930965909
 N1 0.629581 0.499043 0.05271  -0.260930965909
 N2 0.178669 0.51699 0.32274  -0.148963465909
 N2 0.678717 0.51692 0.32328  -0.148963465909
 N2 0.081201 0.470632 0.32452  -0.148963465909
 N2 0.581253 0.470579 0.32510  -0.148963465909
 N2 0.178727 0.517748 0.39611  -0.148963465909
 N2 0.678803 0.517642 0.39666  -0.148963465909
 N2 0.080968 0.473443 0.39787  -0.148963465909
 N2 0.58105 0.473343 0.39845  -0.148963465909
 N1 0.129155 0.50676 0.66804  -0.260930965909
 N1 0.6292 0.506781 0.66870  -0.260930965909
 N1 0.379948 0.500805 0.94856  -0.260930965909
 N1 0.879897 0.501144 0.94839  -0.260930965909
 N2 0.429308 0.481652 0.67773  -0.148963465909
 N2 0.929313 0.482214 0.67756  -0.148963465909
 N2 0.332701 0.532027 0.67671  -0.148963465909
 N2 0.832672 0.532436 0.67648  -0.148963465909
 N2 0.42915 0.480551 0.60436  -0.148963465909
 N2 0.929166 0.481028 0.60419  -0.148963465909
 N2 0.332447 0.529879 0.60333  -0.148963465909
 N2 0.832429 0.530197 0.60311  -0.148963465909
 N1 0.378479 0.492619 0.33280  -0.260930965909
 N1 0.87853 0.492577 0.33263  -0.260930965909
 O1 0.180075 0.607954 0.91530  -0.577688465909
 O1 0.679913 0.608751 0.91576  -0.577688465909
 O1 0.080108 0.396751 0.91729  -0.577688465909
 O1 0.580117 0.396739 0.91795  -0.577688465909
 O1 0.057753 0.581847 0.92257  -0.577688465909
 O1 0.557722 0.581874 0.92318  -0.577688465909
 O1 0.201922 0.422871 0.92346  -0.577688465909
 O1 0.702001 0.423483 0.92389  -0.577688465909
 O1 0.200531 0.585533 0.79434  -0.577688465909
 O1 0.70055 0.585736 0.79497  -0.577688465909
 O1 0.059679 0.426971 0.79674  -0.577688465909
 O1 0.559722 0.426697 0.79732  -0.577688465909
 O1 0.079769 0.610734 0.80217  -0.577688465909
 O1 0.579765 0.610657 0.80276  -0.577688465909
 O1 0.180521 0.402666 0.80267  -0.577688465909
 O1 0.680596 0.402992 0.80315  -0.577688465909
 O1 0.428996 0.389997 0.08519  -0.577688465909
 O1 0.928064 0.38933 0.08475  -0.577688465909
 O1 0.330342 0.603119 0.08390  -0.577688465909
 O1 0.830339 0.603139 0.08393  -0.577688465909
 O1 0.307468 0.418005 0.07847  -0.577688465909
 O1 0.807285 0.418121 0.07850  -0.577688465909
 O1 0.452007 0.574974 0.07881  -0.577688465909
 O1 0.952056 0.574701 0.07870  -0.577688465909
 O1 0.449783 0.414401 0.20563  -0.577688465909
 O1 0.949733 0.414464 0.20476  -0.577688465909
 O1 0.308076 0.572311 0.20398  -0.577688465909
 O1 0.808031 0.572122 0.20396  -0.577688465909
 O1 0.32777 0.389511 0.19942  -0.577688465909
 O1 0.827733 0.389522 0.19940  -0.577688465909
 O1 0.429957 0.596479 0.19943  -0.577688465909
 O1 0.929943 0.596486 0.19925  -0.577688465909
