#======================================================================

# CRYSTAL DATA

#----------------------------------------------------------------------

data_VESTA_phase_1


_pd_phase_name                         MOF
_cell_length_a                         20.63600
_cell_length_b                         15.49900
_cell_length_c                         23.72200
_cell_angle_alpha                      89.79800
_cell_angle_beta                       89.98400
_cell_angle_gamma                      90.01500
_symmetry_space_group_name_H-M         "P 1"
_symmetry_Int_Tables_number            1

loop_
_symmetry_equiv_pos_as_xyz
   "x, y, z"

loop_
   _atom_site_label
   _atom_site_fract_x
   _atom_site_fract_y
   _atom_site_fract_z
 _atom_site_charge
 Zn1 0.30518 0.303546 0.01989  1.07766682927
 Zn1 0.805192 0.303546 0.01989  1.07766682927
 Zn2 0.205337 0.137187 0.98016  1.11142682927
 Zn2 0.705349 0.137187 0.98016  1.11142682927
 Zn1 0.447329 0.696001 0.51898  1.07766682927
 Zn1 0.947341 0.696 0.51898  1.07766682927
 Zn2 0.047146 0.863171 0.48107  1.11142682927
 Zn2 0.547158 0.863171 0.48107  1.11142682927
 Zn1 0.197331 0.804003 0.4810  1.07766682927
 Zn1 0.697343 0.804002 0.48103  1.07766682927
 Zn2 0.297129 0.63683 0.51897  1.11142682927
 Zn2 0.797141 0.636829 0.5189  1.11142682927
 Zn1 0.055165 0.196449 0.98014  1.07766682927
 Zn1 0.555177 0.196449 0.98014  1.07766682927
 Zn2 0.455363 0.362831 0.01983  1.11142682927
 Zn2 0.955376 0.362831 0.0198  1.11142682927
 H1 0.014404 0.108922 0.822  0.099195995935
 H1 0.514416 0.108925 0.822  0.099195995935
 H1 0.998632 0.056467 0.72412  0.099195995935
 H1 0.498645 0.056471 0.72412  0.099195995935
 H1 0.215746 0.037805 0.81630  0.099195995935
 H1 0.715758 0.037803 0.81630  0.099195995935
 H1 0.044087 0.989034 0.63736  0.099195995935
 H1 0.5441 0.989036 0.63736  0.099195995935
 H1 0.245734 0.921472 0.63021  0.099195995935
 H1 0.745746 0.92147 0.6302  0.099195995935
 H1 0.261548 0.97353 0.72867  0.099195995935
 H1 0.761559 0.973526 0.72867  0.099195995935
 H1 0.350461 0.073554 0.98120  0.099195995935
 H1 0.850472 0.073554 0.98120  0.099195995935
 H1 0.293541 0.259107 0.89249  0.099195995935
 H1 0.793553 0.25911 0.89249  0.099195995935
 H1 0.291398 0.255588 0.78807  0.099195995935
 H1 0.79141 0.255591 0.78807  0.099195995935
 H1 0.338402 0.130404 0.73666  0.099195995935
 H1 0.838413 0.130407 0.73666  0.099195995935
 H1 0.388445 0.009138 0.79096  0.099195995935
 H1 0.888455 0.009141 0.79096  0.099195995935
 H1 0.391366 0.013893 0.89541  0.099195995935
 H1 0.891377 0.013894 0.89541  0.099195995935
 H1 0.236925 0.893791 0.32365  0.099195995935
 H1 0.73694 0.893788 0.32365  0.099195995935
 H1 0.253136 0.945277 0.22517  0.099195995935
 H1 0.75315 0.945275 0.22517  0.099195995935
 H1 0.035557 0.964556 0.31652  0.099195995935
 H1 0.535572 0.964555 0.31652  0.099195995935
 H1 0.208128 0.011863 0.13772  0.099195995935
 H1 0.70814 0.011862 0.13772  0.099195995935
 H1 0.0064 0.078696 0.1292  0.099195995935
 H1 0.506413 0.078697 0.12921  0.099195995935
 H1 0.490118 0.027671 0.22804  0.099195995935
 H1 0.990128 0.027672 0.22804  0.099195995935
 H1 0.401948 0.926491 0.48054  0.099195995935
 H1 0.90196 0.926491 0.48054  0.099195995935
 H1 0.459161 0.741969 0.39205  0.099195995935
 H1 0.959172 0.741965 0.39205  0.099195995935
 H1 0.460985 0.746035 0.28760  0.099195995935
 H1 0.960997 0.74603 0.28761  0.099195995935
 H1 0.41337 0.871181 0.23603  0.099195995935
 H1 0.913383 0.871176 0.23603  0.099195995935
 H1 0.36304 0.991851 0.29018  0.099195995935
 H1 0.863055 0.991848 0.29018  0.099195995935
 H1 0.360473 0.986526 0.39466  0.099195995935
 H1 0.860487 0.986525 0.39466  0.099195995935
 H1 0.486925 0.606203 0.67630  0.099195995935
 H1 0.986939 0.606191 0.67630  0.099195995935
 H1 0.503138 0.554742 0.77477  0.099195995935
 H1 0.0 0.554726 0.77477  0.099195995935
 H1 0.285542 0.535374 0.68356  0.099195995935
 H1 0.785553 0.535378 0.68356  0.099195995935
 H1 0.45813 0.488184 0.86226  0.099195995935
 H1 0.958144 0.488175 0.86226  0.099195995935
 H1 0.256391 0.421278 0.87090  0.099195995935
 H1 0.756402 0.421285 0.87091  0.099195995935
 H1 0.24009 0.472257 0.77207  0.099195995935
 H1 0.740101 0.472264 0.77207  0.099195995935
 H1 0.151881 0.57352 0.51951  0.099195995935
 H1 0.651892 0.57352 0.51951  0.099195995935
 H1 0.209112 0.758085 0.60797  0.099195995935
 H1 0.709122 0.758085 0.60797  0.099195995935
 H1 0.210963 0.754005 0.71241  0.099195995935
 H1 0.710973 0.754005 0.71241  0.099195995935
 H1 0.163367 0.628813 0.76400  0.099195995935
 H1 0.663376 0.628812 0.76400  0.099195995935
 H1 0.113032 0.508109 0.7098  0.099195995935
 H1 0.613041 0.508109 0.70988  0.099195995935
 H1 0.110436 0.513453 0.60540  0.099195995935
 H1 0.610445 0.513454 0.60540  0.099195995935
 H1 0.264394 0.391064 0.17787  0.099195995935
 H1 0.764406 0.391064 0.17787  0.099195995935
 H1 0.24862 0.443503 0.27595  0.099195995935
 H1 0.74863 0.443506 0.27595  0.099195995935
 H1 0.465762 0.462199 0.18371  0.099195995935
 H1 0.965775 0.462189 0.18371  0.099195995935
 H1 0.294084 0.510921 0.36271  0.099195995935
 H1 0.794093 0.510923 0.36271  0.099195995935
 H1 0.495748 0.57852 0.36978  0.099195995935
 H1 0.995759 0.578513 0.36979  0.099195995935
 H1 0.011553 0.526457 0.27133  0.099195995935
 H1 0.511564 0.526469 0.27132  0.099195995935
 H1 0.100513 0.426453 0.01881  0.099195995935
 H1 0.600526 0.426453 0.01881  0.099195995935
 H1 0.043515 0.240869 0.10753  0.099195995935
 H1 0.543524 0.240871 0.10753  0.099195995935
 H1 0.04138 0.244355 0.21195  0.099195995935
 H1 0.541388 0.244358 0.21195  0.099195995935
 H1 0.088402 0.369548 0.26335  0.099195995935
 H1 0.588409 0.369551 0.26335  0.099195995935
 H1 0.138442 0.490864 0.20904  0.099195995935
 H1 0.638452 0.490866 0.20904  0.099195995935
 H1 0.141355 0.48614 0.10459  0.099195995935
 H1 0.641366 0.486141 0.10459  0.099195995935
 C1 0.124393 0.107799 0.88348  0.714106829268
 C1 0.624404 0.107798 0.88348  0.714106829268
 C2 0.116311 0.07555 0.82467  -0.0348431707317
 C2 0.616323 0.075549 0.82467  -0.0348431707317
 C3 0.05452 0.081469 0.79844  -0.0910522616408
 C3 0.554532 0.081472 0.79844  -0.0910522616408
 C3 0.046084 0.052397 0.7442  -0.0910522616408
 C3 0.546096 0.052399 0.7442  -0.0910522616408
 C2 0.098754 0.016975 0.71340  -0.0348431707317
 C2 0.598766 0.016976 0.71340  -0.0348431707317
 C2 0.16138 0.011721 0.73973  -0.0348431707317
 C2 0.661392 0.01172 0.73973  -0.0348431707317
 C3 0.168581 0.041208 0.79576  -0.0910522616408
 C3 0.668594 0.041209 0.79576  -0.0910522616408
 C3 0.091408 0.98642 0.65768  -0.0910522616408
 C3 0.59142 0.98642 0.65768  -0.0910522616408
 C2 0.143481 0.952336 0.62839  -0.0348431707317
 C2 0.643493 0.952337 0.62839  -0.0348431707317
 C3 0.205542 0.948124 0.65426  -0.0910522616408
 C3 0.705553 0.948122 0.65426  -0.0910522616408
 C3 0.214076 0.976924 0.70855  -0.0910522616408
 C3 0.714088 0.976922 0.70855  -0.0910522616408
 C1 0.133947 0.917348 0.57040  0.714106829268
 C1 0.633958 0.917349 0.57040  0.714106829268
 C1 0.409306 0.185542 0.98263  0.714106829268
 C1 0.909318 0.185542 0.98263  0.714106829268
 C4 0.346042 0.140304 0.96497  0.0870568292683
 C4 0.846054 0.140305 0.96497  0.0870568292683
 C2 0.342564 0.136784 0.90080  -0.0348431707317
 C2 0.842574 0.136785 0.90080  -0.0348431707317
 C3 0.314433 0.20446 0.87020  -0.0910522616408
 C3 0.814446 0.204463 0.87020  -0.0910522616408
 C3 0.313077 0.202169 0.81139  -0.0910522616408
 C3 0.813089 0.202172 0.81139  -0.0910522616408
 C3 0.339742 0.132159 0.78261  -0.0910522616408
 C3 0.839753 0.132162 0.7826  -0.0910522616408
 C3 0.367617 0.064245 0.81299  -0.0910522616408
 C3 0.867628 0.064248 0.81299  -0.0910522616408
 C3 0.369074 0.066631 0.87182  -0.0910522616408
 C3 0.869086 0.066632 0.87182  -0.0910522616408
 C1 0.126859 0.895257 0.38460  0.714106829268
 C1 0.626875 0.895256 0.38460  0.714106829268
 C2 0.135033 0.927185 0.32556  -0.0348431707317
 C2 0.635048 0.927184 0.3255  -0.0348431707317
 C3 0.196928 0.921041 0.2995  -0.0910522616408
 C3 0.696943 0.921038 0.2995  -0.0910522616408
 C3 0.205596 0.949546 0.24513  -0.0910522616408
 C3 0.70561 0.949544 0.24513  -0.0910522616408
 C2 0.153049 0.984563 0.21379  -0.0348431707317
 C2 0.653062 0.984561 0.21379  -0.0348431707317
 C2 0.090283 0.989943 0.23988  -0.0348431707317
 C2 0.590297 0.989942 0.23988  -0.0348431707317
 C3 0.082845 0.961077 0.29618  -0.0910522616408
 C3 0.582859 0.961074 0.29618  -0.0910522616408
 C3 0.160677 0.014539 0.15782  -0.0910522616408
 C3 0.66069 0.014539 0.15782  -0.0910522616408
 C2 0.108723 0.048137 0.12801  -0.0348431707317
 C2 0.608735 0.048136 0.12801  -0.0348431707317
 C3 0.046512 0.052429 0.15364  -0.0910522616408
 C3 0.546525 0.05243 0.15364  -0.0910522616408
 C3 0.03771 0.024216 0.20816  -0.0910522616408
 C3 0.537723 0.024215 0.20816  -0.0910522616408
 C1 0.118419 0.082629 0.06973  0.714106829268
 C1 0.61843 0.08263 0.06973  0.714106829268
 C1 0.34301 0.814473 0.48187  0.714106829268
 C1 0.843023 0.814473 0.48187  0.714106829268
 C4 0.406315 0.859921 0.464  0.0870568292683
 C4 0.906327 0.859921 0.46430  0.0870568292683
 C2 0.409755 0.863953 0.40015  -0.0348431707317
 C2 0.909769 0.863952 0.40015  -0.0348431707317
 C3 0.438034 0.796597 0.36967  -0.0910522616408
 C3 0.938046 0.796593 0.36967  -0.0910522616408
 C3 0.439185 0.799195 0.31085  -0.0910522616408
 C3 0.939198 0.799191 0.31086  -0.0910522616408
 C3 0.412182 0.869189 0.28198  -0.0910522616408
 C3 0.912196 0.869184 0.28198  -0.0910522616408
 C3 0.38414 0.936765 0.31227  -0.0910522616408
 C3 0.884155 0.936761 0.3122  -0.0910522616408
 C3 0.382893 0.934086 0.37111  -0.0910522616408
 C3 0.882907 0.934084 0.37111  -0.0910522616408
 C1 0.376831 0.604735 0.61542  0.714106829268
 C1 0.876841 0.604737 0.61543  0.714106829268
 C2 0.385018 0.572781 0.67444  -0.0348431707317
 C2 0.88503 0.572779 0.67445  -0.0348431707317
 C3 0.446922 0.578947 0.7004  -0.0910522616408
 C3 0.946935 0.578936 0.70042  -0.0910522616408
 C3 0.455595 0.550454 0.75484  -0.0910522616408
 C3 0.955609 0.550444 0.75484  -0.0910522616408
 C2 0.403046 0.51543 0.78621  -0.0348431707317
 C2 0.903059 0.515423 0.78621  -0.0348431707317
 C2 0.340275 0.510015 0.7601  -0.0348431707317
 C2 0.840287 0.510014 0.76017  -0.0348431707317
 C3 0.332832 0.53887 0.7038  -0.0910522616408
 C3 0.832844 0.538868 0.70387  -0.0910522616408
 C3 0.410677 0.485481 0.84219  -0.0910522616408
 C3 0.91069 0.485477 0.84219  -0.0910522616408
 C2 0.358725 0.451874 0.87203  -0.0348431707317
 C2 0.858738 0.451871 0.8720  -0.0348431707317
 C3 0.296508 0.447549 0.8464  -0.0910522616408
 C3 0.79652 0.447554 0.84645  -0.0910522616408
 C3 0.2877 0.475738 0.79192  -0.0910522616408
 C3 0.787711 0.475741 0.79192  -0.0910522616408
 C1 0.368432 0.417398 0.93031  0.714106829268
 C1 0.868446 0.417394 0.93031  0.714106829268
 C1 0.092987 0.685531 0.51816  0.714106829268
 C1 0.592999 0.685531 0.51816  0.714106829268
 C4 0.156271 0.640097 0.53574  0.0870568292683
 C4 0.656282 0.640097 0.53574  0.0870568292683
 C2 0.159697 0.636071 0.59988  -0.0348431707317
 C2 0.659707 0.636072 0.5998  -0.0348431707317
 C3 0.187986 0.70344 0.63035  -0.0910522616408
 C3 0.687996 0.70344 0.63036  -0.0910522616408
 C3 0.189156 0.700835 0.68916  -0.0910522616408
 C3 0.689166 0.700835 0.68917  -0.0910522616408
 C3 0.162166 0.630814 0.71805  -0.0910522616408
 C3 0.662176 0.630814 0.71806  -0.0910522616408
 C3 0.134118 0.563221 0.6877  -0.0910522616408
 C3 0.634127 0.563221 0.68778  -0.0910522616408
 C3 0.132852 0.565912 0.62894  -0.0910522616408
 C3 0.632862 0.565913 0.6289  -0.0910522616408
 C1 0.3744 0.392207 0.11654  0.714106829268
 C1 0.874414 0.392201 0.1165  0.714106829268
 C2 0.366315 0.424445 0.17536  -0.0348431707317
 C2 0.866329 0.424437 0.17536  -0.0348431707317
 C3 0.304517 0.418517 0.20161  -0.0910522616408
 C3 0.804528 0.418519 0.20161  -0.0910522616408
 C3 0.296079 0.447579 0.25580  -0.0910522616408
 C3 0.79609 0.447575 0.25580  -0.0910522616408
 C2 0.348752 0.483003 0.28665  -0.0348431707317
 C2 0.848763 0.483001 0.28665  -0.0348431707317
 C2 0.411386 0.488268 0.26029  -0.0348431707317
 C2 0.911398 0.48826 0.26030  -0.0348431707317
 C3 0.418589 0.458788 0.20426  -0.0910522616408
 C3 0.918601 0.458785 0.20426  -0.0910522616408
 C3 0.341408 0.513542 0.34237  -0.0910522616408
 C3 0.841419 0.513537 0.34237  -0.0910522616408
 C2 0.393486 0.547634 0.37164  -0.0348431707317
 C2 0.893496 0.547634 0.37164  -0.0348431707317
 C3 0.455552 0.551859 0.34575  -0.0910522616408
 C3 0.955564 0.551851 0.34575  -0.0910522616408
 C3 0.464088 0.523067 0.2914  -0.0910522616408
 C3 0.9641 0.52306 0.29146  -0.0910522616408
 C1 0.383955 0.582625 0.4296  0.714106829268
 C1 0.883965 0.582628 0.42964  0.714106829268
 C1 0.159313 0.314462 0.01738  0.714106829268
 C1 0.659325 0.314463 0.01738  0.714106829268
 C4 0.096054 0.359703 0.03504  0.0870568292683
 C4 0.596065 0.359703 0.0350  0.0870568292683
 C2 0.092547 0.363221 0.09921  -0.0348431707317
 C2 0.592559 0.363222 0.09921  -0.0348431707317
 C3 0.064409 0.295525 0.12981  -0.0910522616408
 C3 0.564419 0.295527 0.12981  -0.0910522616408
 C3 0.063058 0.297796 0.18862  -0.0910522616408
 C3 0.563067 0.297798 0.18862  -0.0910522616408
 C3 0.089732 0.367811 0.21740  -0.0910522616408
 C3 0.58974 0.367814 0.21740  -0.0910522616408
 C3 0.117608 0.435752 0.18701  -0.0910522616408
 C3 0.617618 0.435754 0.18701  -0.0910522616408
 C3 0.119059 0.433384 0.1281  -0.0910522616408
 C3 0.61907 0.433385 0.1281  -0.0910522616408
 O1 0.17763 0.088636 0.90866  -0.613633170732
 O1 0.677643 0.088637 0.90866  -0.613633170732
 O1 0.077946 0.151628 0.90369  -0.613633170732
 O1 0.577958 0.151629 0.90369  -0.613633170732
 O1 0.076512 0.921663 0.54994  -0.613633170732
 O1 0.576523 0.921661 0.54994  -0.613633170732
 O1 0.183304 0.885099 0.54606  -0.613633170732
 O1 0.683315 0.885098 0.5460  -0.613633170732
 O2 0.292088 0.181781 0.99018  -0.682433170732
 O2 0.7921 0.181781 0.99018  -0.682433170732
 O2 0.402751 0.251705 0.01459  -0.682433170732
 O2 0.902763 0.251705 0.01459  -0.682433170732
 O1 0.462012 0.155521 0.9653  -0.613633170732
 O1 0.962024 0.155521 0.9653  -0.613633170732
 O1 0.073692 0.914618 0.40978  -0.613633170732
 O1 0.573709 0.914617 0.40978  -0.613633170732
 O1 0.173139 0.851238 0.40504  -0.613633170732
 O1 0.673155 0.851234 0.40504  -0.613633170732
 O1 0.175768 0.077948 0.04914  -0.613633170732
 O1 0.675779 0.077949 0.04914  -0.613633170732
 O1 0.06914 0.115041 0.04527  -0.613633170732
 O1 0.569151 0.115045 0.04527  -0.613633170732
 O2 0.460212 0.818033 0.48946  -0.682433170732
 O2 0.960224 0.818034 0.4894  -0.682433170732
 O2 0.349723 0.747826 0.51366  -0.682433170732
 O2 0.849735 0.747824 0.51366  -0.682433170732
 O1 0.290214 0.844533 0.4646  -0.613633170732
 O1 0.790227 0.844533 0.46462  -0.613633170732
 O1 0.323658 0.58538 0.59026  -0.613633170732
 O1 0.823669 0.585378 0.59026  -0.613633170732
 O1 0.423116 0.64879 0.5949  -0.613633170732
 O1 0.923129 0.648784 0.5949  -0.613633170732
 O1 0.425791 0.422056 0.95086  -0.613633170732
 O1 0.925804 0.422058 0.95086  -0.613633170732
 O1 0.319144 0.385008 0.95481  -0.613633170732
 O1 0.819157 0.385015 0.95482  -0.613633170732
 O2 0.210199 0.681972 0.51056  -0.682433170732
 O2 0.710211 0.681973 0.51056  -0.682433170732
 O2 0.099729 0.752171 0.48635  -0.682433170732
 O2 0.599741 0.75217 0.48635  -0.682433170732
 O1 0.04017 0.655462 0.53541  -0.613633170732
 O1 0.540181 0.655462 0.53541  -0.613633170732
 O1 0.427653 0.411378 0.09135  -0.613633170732
 O1 0.927664 0.411381 0.09135  -0.613633170732
 O1 0.327948 0.348376 0.09633  -0.613633170732
 O1 0.827959 0.348379 0.09633  -0.613633170732
 O1 0.32652 0.57829 0.45013  -0.613633170732
 O1 0.826534 0.578281 0.45013  -0.613633170732
 O1 0.433315 0.61491 0.45394  -0.613633170732
 O1 0.933328 0.614905 0.4539  -0.613633170732
 O2 0.042097 0.31823 0.00983  -0.682433170732
 O2 0.542109 0.31823 0.00983  -0.682433170732
 O2 0.152738 0.248303 0.98541  -0.682433170732
 O2 0.65275 0.248303 0.98541  -0.682433170732
 O1 0.212018 0.344474 0.0346  -0.613633170732
 O1 0.712029 0.344474 0.0346  -0.613633170732
