#======================================================================

# CRYSTAL DATA

#----------------------------------------------------------------------

data_VESTA_phase_1


_pd_phase_name                         MOF
_cell_length_a                         17.00500
_cell_length_b                         18.73500
_cell_length_c                         19.36800
_cell_angle_alpha                      90.00500
_cell_angle_beta                       90.01300
_cell_angle_gamma                      101.51000
_symmetry_space_group_name_H-M         "P 1"
_symmetry_Int_Tables_number            1

loop_
_symmetry_equiv_pos_as_xyz
   "x, y, z"

loop_
   _atom_site_label
   _atom_site_fract_x
   _atom_site_fract_y
   _atom_site_fract_z
 _atom_site_charge
 Cd1 0.152549 0.993088 0.05731  0.996600666667
 Cd1 0.652512 0.993077 0.05730  0.996600666667
 Cd1 0.347323 0.506968 0.55731  0.996600666667
 Cd1 0.847289 0.506942 0.55731  0.996600666667
 Cd1 0.347325 0.006935 0.94280  0.996600666667
 Cd1 0.847363 0.006924 0.94280  0.996600666667
 Cd1 0.152532 0.493054 0.44279  0.996600666667
 Cd1 0.652555 0.493067 0.44279  0.996600666667
 H1 0.42471 0.302032 0.42263  0.0986170952381
 H1 0.924654 0.301924 0.42265  0.0986170952381
 H1 0.397536 0.206308 0.33068  0.0986170952381
 H1 0.897586 0.20631 0.33059  0.0986170952381
 H1 0.228185 0.389508 0.34124  0.0986170952381
 H1 0.728232 0.389504 0.34119  0.0986170952381
 H1 0.352588 0.118033 0.26098  0.0986170952381
 H1 0.852588 0.117993 0.26093  0.0986170952381
 H1 0.302064 0.029318 0.16857  0.0986170952381
 H1 0.802018 0.029268 0.16854  0.0986170952381
 H1 0.141272 0.152525 0.09908  0.0986170952381
 H1 0.64119 0.152462 0.09910  0.0986170952381
 H1 0.18325 0.246316 0.19024  0.0986170952381
 H1 0.683243 0.246288 0.19021  0.0986170952381
 H1 0.076577 0.569253 0.76663  0.0986170952381
 H1 0.576582 0.569291 0.76657  0.0986170952381
 H1 0.124497 0.662647 0.85847  0.0986170952381
 H1 0.624516 0.662652 0.85844  0.0986170952381
 H1 0.386275 0.682683 0.72288  0.0986170952381
 H1 0.886321 0.682689 0.72281  0.0986170952381
 H1 0.122895 0.722283 0.95741  0.0986170952381
 H1 0.622917 0.72229 0.95741  0.0986170952381
 H1 0.161723 0.826811 0.03757  0.0986170952381
 H1 0.661646 0.826781 0.03763  0.0986170952381
 H1 0.036729 0.955081 0.9228  0.0986170952381
 H1 0.536693 0.955067 0.92288  0.0986170952381
 H1 0.491876 0.855519 0.83893  0.0986170952381
 H1 0.991859 0.85552 0.83891  0.0986170952381
 H1 0.075184 0.198021 0.92253  0.0986170952381
 H1 0.575173 0.198 0.92255  0.0986170952381
 H1 0.102264 0.293679 0.83054  0.0986170952381
 H1 0.602276 0.293686 0.83059  0.0986170952381
 H1 0.271728 0.110569 0.84119  0.0986170952381
 H1 0.771701 0.11054 0.84119  0.0986170952381
 H1 0.147298 0.382055 0.76091  0.0986170952381
 H1 0.647274 0.382036 0.76094  0.0986170952381
 H1 0.197896 0.470771 0.66856  0.0986170952381
 H1 0.697841 0.470744 0.66857  0.0986170952381
 H1 0.35866 0.347521 0.59915  0.0986170952381
 H1 0.858624 0.347507 0.59916  0.0986170952381
 H1 0.316549 0.253683 0.69021  0.0986170952381
 H1 0.816568 0.253701 0.6902  0.0986170952381
 H1 0.423401 0.930773 0.26662  0.0986170952381
 H1 0.923503 0.93085 0.2667  0.0986170952381
 H1 0.375458 0.837409 0.35844  0.0986170952381
 H1 0.875511 0.837449 0.35850  0.0986170952381
 H1 0.113561 0.817213 0.22283  0.0986170952381
 H1 0.61365 0.81733 0.22293  0.0986170952381
 H1 0.376988 0.777755 0.45736  0.0986170952381
 H1 0.877028 0.777782 0.45738  0.0986170952381
 H1 0.338212 0.673273 0.53756  0.0986170952381
 H1 0.838144 0.673289 0.53755  0.0986170952381
 H1 0.46317 0.544958 0.42284  0.0986170952381
 H1 0.963139 0.544948 0.42291  0.0986170952381
 H1 0.008054 0.644473 0.33899  0.0986170952381
 H1 0.508054 0.644513 0.33895  0.0986170952381
 H1 0.075111 0.698024 0.5775  0.0986170952381
 H1 0.575177 0.698053 0.57748  0.0986170952381
 H1 0.102303 0.793683 0.66955  0.0986170952381
 H1 0.602261 0.79369 0.66951  0.0986170952381
 H1 0.271693 0.61053 0.65880  0.0986170952381
 H1 0.771668 0.610535 0.65889  0.0986170952381
 H1 0.147345 0.881987 0.73912  0.0986170952381
 H1 0.647279 0.882028 0.73918  0.0986170952381
 H1 0.197887 0.970729 0.83150  0.0986170952381
 H1 0.697905 0.970765 0.83155  0.0986170952381
 H1 0.358669 0.847528 0.90103  0.0986170952381
 H1 0.858716 0.847541 0.90097  0.0986170952381
 H1 0.316643 0.753686 0.80992  0.0986170952381
 H1 0.816596 0.753698 0.80987  0.0986170952381
 H1 0.423273 0.430713 0.23358  0.0986170952381
 H1 0.923318 0.430742 0.23355  0.0986170952381
 H1 0.375332 0.337346 0.14172  0.0986170952381
 H1 0.875336 0.33738 0.14169  0.0986170952381
 H1 0.113589 0.317278 0.27724  0.0986170952381
 H1 0.613591 0.317334 0.27726  0.0986170952381
 H1 0.376965 0.277749 0.04272  0.0986170952381
 H1 0.876891 0.277697 0.04270  0.0986170952381
 H1 0.338216 0.173263 0.96250  0.0986170952381
 H1 0.838203 0.173201 0.96248  0.0986170952381
 H1 0.463175 0.044964 0.07723  0.0986170952381
 H1 0.963167 0.044944 0.07725  0.0986170952381
 H1 0.008021 0.144522 0.16118  0.0986170952381
 H1 0.508029 0.144516 0.16117  0.0986170952381
 H1 0.424668 0.801967 0.07751  0.0986170952381
 H1 0.924716 0.801975 0.0775  0.0986170952381
 H1 0.397594 0.706315 0.16950  0.0986170952381
 H1 0.89763 0.70636 0.16956  0.0986170952381
 H1 0.228196 0.889481 0.15891  0.0986170952381
 H1 0.728248 0.88953 0.15888  0.0986170952381
 H1 0.352613 0.617993 0.23919  0.0986170952381
 H1 0.85259 0.618025 0.23913  0.0986170952381
 H1 0.30199 0.529263 0.33152  0.0986170952381
 H1 0.802054 0.529306 0.33149  0.0986170952381
 H1 0.141228 0.652524 0.40093  0.0986170952381
 H1 0.641258 0.652516 0.40094  0.0986170952381
 H1 0.183335 0.746347 0.30986  0.0986170952381
 H1 0.683286 0.746331 0.30985  0.0986170952381
 H1 0.076439 0.069179 0.73340  0.0986170952381
 H1 0.576492 0.069222 0.73350  0.0986170952381
 H1 0.124381 0.162589 0.64161  0.0986170952381
 H1 0.624428 0.162584 0.64166  0.0986170952381
 H1 0.386297 0.182712 0.77724  0.0986170952381
 H1 0.886327 0.182743 0.77731  0.0986170952381
 H1 0.122785 0.222207 0.54274  0.0986170952381
 H1 0.622836 0.222205 0.54273  0.0986170952381
 H1 0.161637 0.326696 0.46255  0.0986170952381
 H1 0.661575 0.326664 0.46249  0.0986170952381
 H1 0.036678 0.455038 0.57724  0.0986170952381
 H1 0.536641 0.455 0.57721  0.0986170952381
 H1 0.491812 0.355473 0.66114  0.0986170952381
 H1 0.991814 0.355517 0.66118  0.0986170952381
 C1 0.336608 0.40864 0.44641  0.674555666667
 C1 0.836581 0.40859 0.44641  0.674555666667
 C2 0.327528 0.352546 0.39020  -0.0724768333333
 C2 0.827515 0.352492 0.39019  -0.0724768333333
 C3 0.375704 0.3002 0.38596  -0.139068083333
 C3 0.875682 0.300137 0.38595  -0.139068083333
 C3 0.359965 0.246892 0.33482  -0.139068083333
 C3 0.859991 0.246873 0.33476  -0.139068083333
 C4 0.296231 0.2469 0.28861  0.232875666667
 C4 0.796273 0.246896 0.28854  0.232875666667
 C5 0.267114 0.349786 0.34047  0.189400666667
 C5 0.767139 0.349763 0.3404  0.189400666667
 C2 0.272256 0.191153 0.23391  -0.0724768333333
 C2 0.772272 0.191134 0.23386  -0.0724768333333
 C3 0.305317 0.128606 0.22684  -0.139068083333
 C3 0.805311 0.128573 0.22680  -0.139068083333
 C5 0.277339 0.078265 0.17519  0.189400666667
 C5 0.777306 0.078222 0.17516  0.189400666667
 C5 0.187842 0.147245 0.13630  0.189400666667
 C5 0.687792 0.147198 0.13629  0.189400666667
 C3 0.212135 0.199668 0.18654  -0.139068083333
 C3 0.712123 0.199638 0.18651  -0.139068083333
 C1 0.448342 0.566492 0.67946  0.674555666667
 C1 0.948335 0.566471 0.67945  0.674555666667
 C2 0.477901 0.618889 0.73754  -0.0724768333333
 C2 0.977894 0.618864 0.73754  -0.0724768333333
 C3 0.044916 0.613212 0.77735  -0.139068083333
 C3 0.544912 0.613235 0.77733  -0.139068083333
 C3 0.070821 0.664886 0.82848  -0.139068083333
 C3 0.570823 0.664892 0.82847  -0.139068083333
 C4 0.028928 0.721473 0.83878  0.232875666667
 C4 0.528934 0.721478 0.83879  0.232875666667
 C5 0.439464 0.676856 0.75201  0.189400666667
 C5 0.939484 0.676857 0.75197  0.189400666667
 C2 0.053962 0.780169 0.89018  -0.0724768333333
 C2 0.553975 0.780172 0.89018  -0.0724768333333
 C3 0.102572 0.772876 0.94734  -0.139068083333
 C3 0.602584 0.772879 0.9473  -0.139068083333
 C5 0.124441 0.830972 0.99257  0.189400666667
 C5 0.624403 0.830957 0.99261  0.189400666667
 C5 0.0544 0.902718 0.92946  0.189400666667
 C5 0.554372 0.902706 0.92949  0.189400666667
 C3 0.029418 0.846948 0.88239  -0.139068083333
 C3 0.529421 0.846947 0.88240  -0.139068083333
 C1 0.163285 0.091391 0.94633  0.674555666667
 C1 0.663293 0.091385 0.9463  0.674555666667
 C2 0.17236 0.147496 0.8901  -0.0724768333333
 C2 0.672357 0.147487 0.8901  -0.0724768333333
 C3 0.12417 0.199832 0.88586  -0.139068083333
 C3 0.624172 0.199828 0.88590  -0.139068083333
 C3 0.139869 0.253123 0.83471  -0.139068083333
 C3 0.639875 0.253124 0.83475  -0.139068083333
 C4 0.203604 0.253129 0.78853  0.232875666667
 C4 0.703602 0.253126 0.78856  0.232875666667
 C5 0.232777 0.150275 0.84041  0.189400666667
 C5 0.732763 0.150258 0.84042  0.189400666667
 C2 0.227583 0.308884 0.73386  -0.0724768333333
 C2 0.72758 0.308883 0.73389  -0.0724768333333
 C3 0.194566 0.371459 0.72679  -0.139068083333
 C3 0.694546 0.371447 0.72682  -0.139068083333
 C5 0.222588 0.421805 0.6751  0.189400666667
 C5 0.722548 0.421786 0.67519  0.189400666667
 C5 0.312059 0.352799 0.63632  0.189400666667
 C5 0.812035 0.352791 0.63634  0.189400666667
 C3 0.287706 0.300358 0.68652  -0.139068083333
 C3 0.787708 0.300363 0.68655  -0.139068083333
 C1 0.051623 0.933542 0.17951  0.674555666667
 C1 0.551597 0.933553 0.17951  0.674555666667
 C2 0.022084 0.881141 0.23759  -0.0724768333333
 C2 0.522059 0.881157 0.2375  -0.0724768333333
 C3 0.455059 0.886818 0.27737  -0.139068083333
 C3 0.955113 0.886849 0.27742  -0.139068083333
 C3 0.429142 0.835159 0.32848  -0.139068083333
 C3 0.929174 0.835174 0.32852  -0.139068083333
 C4 0.471018 0.778563 0.33880  0.232875666667
 C4 0.970998 0.778534 0.33879  0.232875666667
 C5 0.060431 0.823099 0.25200  0.189400666667
 C5 0.560472 0.823171 0.25205  0.189400666667
 C2 0.445962 0.719873 0.3901  -0.0724768333333
 C2 0.945944 0.719855 0.3901  -0.0724768333333
 C3 0.397333 0.727168 0.4473  -0.139068083333
 C3 0.897325 0.727174 0.44732  -0.139068083333
 C5 0.375466 0.669086 0.49256  0.189400666667
 C5 0.875425 0.669095 0.49257  0.189400666667
 C5 0.445505 0.597324 0.42946  0.189400666667
 C5 0.94547 0.597315 0.42950  0.189400666667
 C3 0.470502 0.65309 0.38241  -0.139068083333
 C3 0.970472 0.653064 0.38243  -0.139068083333
 C1 0.163206 0.591393 0.55369  0.674555666667
 C1 0.663267 0.591406 0.5537  0.674555666667
 C2 0.172306 0.647485 0.60991  -0.0724768333333
 C2 0.672342 0.64751 0.6099  -0.0724768333333
 C3 0.124123 0.699823 0.61420  -0.139068083333
 C3 0.624171 0.699863 0.61415  -0.139068083333
 C3 0.139883 0.753111 0.66536  -0.139068083333
 C3 0.639862 0.753132 0.66534  -0.139068083333
 C4 0.203649 0.7531 0.7115  0.232875666667
 C4 0.703585 0.753116 0.71156  0.232875666667
 C5 0.232752 0.650242 0.65962  0.189400666667
 C5 0.732744 0.650263 0.65966  0.189400666667
 C2 0.227643 0.80885 0.76623  -0.0724768333333
 C2 0.727591 0.80888 0.76623  -0.0724768333333
 C3 0.194609 0.871415 0.77327  -0.139068083333
 C3 0.694562 0.871446 0.77330  -0.139068083333
 C5 0.222596 0.921771 0.82490  0.189400666667
 C5 0.722597 0.9218 0.82493  0.189400666667
 C5 0.312084 0.85279 0.86381  0.189400666667
 C5 0.812102 0.852808 0.86378  0.189400666667
 C3 0.287772 0.800344 0.81359  -0.139068083333
 C3 0.787739 0.800362 0.8135  -0.139068083333
 C1 0.051598 0.433513 0.32065  0.674555666667
 C1 0.551578 0.433541 0.32066  0.674555666667
 C2 0.022005 0.381118 0.2625  -0.0724768333333
 C2 0.52198 0.381135 0.26259  -0.0724768333333
 C3 0.454952 0.386777 0.22282  -0.139068083333
 C3 0.954967 0.386784 0.22279  -0.139068083333
 C3 0.429033 0.335113 0.17169  -0.139068083333
 C3 0.929022 0.33512 0.17166  -0.139068083333
 C4 0.470941 0.278544 0.16135  0.232875666667
 C4 0.970898 0.278527 0.16133  0.232875666667
 C5 0.060401 0.323122 0.24811  0.189400666667
 C5 0.560408 0.323163 0.24812  0.189400666667
 C2 0.445912 0.219862 0.10993  -0.0724768333333
 C2 0.945864 0.219838 0.10993  -0.0724768333333
 C3 0.397296 0.227158 0.05278  -0.139068083333
 C3 0.897248 0.22712 0.05277  -0.139068083333
 C5 0.375462 0.169079 0.  0.189400666667
 C5 0.875439 0.169036 0.  0.189400666667
 C5 0.4455 0.097326 0.07062  0.189400666667
 C5 0.945485 0.097302 0.07063  0.189400666667
 C3 0.470471 0.153088 0.11770  -0.139068083333
 C3 0.970439 0.153073 0.11771  -0.139068083333
 C1 0.336563 0.908611 0.05374  0.674555666667
 C1 0.836627 0.908621 0.05372  0.674555666667
 C2 0.327508 0.852511 0.10994  -0.0724768333333
 C2 0.827562 0.852536 0.10994  -0.0724768333333
 C3 0.375682 0.800158 0.1141  -0.139068083333
 C3 0.875732 0.800184 0.11420  -0.139068083333
 C3 0.359999 0.74688 0.16534  -0.139068083333
 C3 0.860027 0.746916 0.16537  -0.139068083333
 C4 0.296297 0.7469 0.21155  0.232875666667
 C4 0.796294 0.746932 0.21155  0.232875666667
 C5 0.267124 0.849757 0.15968  0.189400666667
 C5 0.767164 0.849795 0.15966  0.189400666667
 C2 0.272311 0.691148 0.26622  -0.0724768333333
 C2 0.772295 0.691171 0.26621  -0.0724768333333
 C3 0.305334 0.62858 0.27330  -0.139068083333
 C3 0.80533 0.628607 0.27326  -0.139068083333
 C5 0.277298 0.57823 0.32491  0.189400666667
 C5 0.777336 0.578259 0.32489  0.189400666667
 C5 0.187824 0.647237 0.36375  0.189400666667
 C5 0.687847 0.64724 0.36375  0.189400666667
 C3 0.212182 0.699676 0.31356  -0.139068083333
 C3 0.712164 0.699678 0.31355  -0.139068083333
 C1 0.448328 0.066437 0.82059  0.674555666667
 C1 0.948322 0.066437 0.82059  0.674555666667
 C2 0.477858 0.118856 0.76254  -0.0724768333333
 C2 0.977833 0.118852 0.76253  -0.0724768333333
 C3 0.044804 0.113159 0.722  -0.139068083333
 C3 0.544847 0.113187 0.72275  -0.139068083333
 C3 0.070712 0.164835 0.67159  -0.139068083333
 C3 0.570748 0.164838 0.67163  -0.139068083333
 C4 0.028861 0.221458 0.66133  0.232875666667
 C4 0.528872 0.221436 0.66132  0.232875666667
 C5 0.439451 0.17685 0.74810  0.189400666667
 C5 0.939447 0.176869 0.74813  0.189400666667
 C2 0.053894 0.280137 0.60994  -0.0724768333333
 C2 0.553905 0.280112 0.60992  -0.0724768333333
 C3 0.102496 0.272818 0.55280  -0.139068083333
 C3 0.602508 0.2728 0.55278  -0.139068083333
 C5 0.124368 0.330893 0.50754  0.189400666667
 C5 0.624343 0.330868 0.50750  0.189400666667
 C5 0.054347 0.402673 0.5706  0.189400666667
 C5 0.55432 0.402639 0.57060  0.189400666667
 C3 0.029376 0.346928 0.61772  -0.139068083333
 C3 0.529359 0.346892 0.61768  -0.139068083333
 N1 0.251459 0.298924 0.29129  -0.392974333333
 N1 0.751495 0.298917 0.29124  -0.392974333333
 N2 0.219345 0.086828 0.13032  -0.351664333333
 N2 0.719296 0.086784 0.13031  -0.351664333333
 N1 0.463663 0.727051 0.80076  -0.392974333333
 N1 0.96364 0.727035 0.80074  -0.392974333333
 N2 0.101616 0.895289 0.98386  -0.351664333333
 N2 0.601561 0.895266 0.98390  -0.351664333333
 N1 0.248407 0.201128 0.79124  -0.392974333333
 N1 0.748394 0.201116 0.79126  -0.392974333333
 N2 0.280595 0.413236 0.63035  -0.351664333333
 N2 0.780547 0.413214 0.63036  -0.351664333333
 N1 0.036241 0.772918 0.30074  -0.392974333333
 N1 0.536289 0.77299 0.30080  -0.392974333333
 N2 0.398294 0.604766 0.48384  -0.351664333333
 N2 0.898241 0.604768 0.48386  -0.351664333333
 N1 0.248436 0.70109 0.70881  -0.392974333333
 N1 0.748383 0.701113 0.70885  -0.392974333333
 N2 0.280589 0.913211 0.86977  -0.351664333333
 N2 0.780619 0.913233 0.86976  -0.351664333333
 N1 0.036207 0.272956 0.19934  -0.392974333333
 N1 0.536225 0.272981 0.19936  -0.392974333333
 N2 0.39829 0.104762 0.01622  -0.351664333333
 N2 0.898286 0.10473 0.01622  -0.351664333333
 N1 0.251511 0.798914 0.2088  -0.392974333333
 N1 0.751513 0.79895 0.20883  -0.392974333333
 N2 0.219286 0.586798 0.36973  -0.351664333333
 N2 0.719338 0.586817 0.36973  -0.351664333333
 N1 0.463647 0.227044 0.69937  -0.392974333333
 N1 0.963628 0.227069 0.69940  -0.392974333333
 N2 0.101541 0.395215 0.51625  -0.351664333333
 N2 0.601508 0.395188 0.51621  -0.351664333333
 O1 0.285031 0.450073 0.44967  -0.613059333333
 O1 0.784995 0.450017 0.44965  -0.613059333333
 O2 0.393383 0.412611 0.48967  -0.597599333333
 O2 0.893348 0.412572 0.4896  -0.597599333333
 O2 0.386883 0.580966 0.64689  -0.597599333333
 O2 0.886878 0.58095 0.64688  -0.597599333333
 O1 0.483249 0.51541 0.66619  -0.613059333333
 O1 0.983252 0.515399 0.66617  -0.613059333333
 O1 0.214826 0.049925 0.94956  -0.613059333333
 O1 0.714852 0.049938 0.949  -0.613059333333
 O2 0.106545 0.087445 0.98960  -0.597599333333
 O2 0.606541 0.087431 0.98961  -0.597599333333
 O2 0.113059 0.919078 0.14692  -0.597599333333
 O2 0.613017 0.919072 0.14691  -0.597599333333
 O1 0.016713 0.984631 0.1662  -0.613059333333
 O1 0.516701 0.984655 0.16628  -0.613059333333
 O1 0.214731 0.549906 0.55047  -0.613059333333
 O1 0.714833 0.549963 0.55046  -0.613059333333
 O2 0.106463 0.587452 0.51041  -0.597599333333
 O2 0.606536 0.587462 0.51041  -0.597599333333
 O2 0.113088 0.419053 0.35318  -0.597599333333
 O2 0.61306 0.419074 0.35320  -0.597599333333
 O1 0.016705 0.484599 0.33395  -0.613059333333
 O1 0.5167 0.48464 0.33394  -0.613059333333
 O1 0.284948 0.950007 0.05045  -0.613059333333
 O1 0.785033 0.950037 0.05044  -0.613059333333
 O2 0.393336 0.91259 0.01049  -0.597599333333
 O2 0.893391 0.912579 0.01048  -0.597599333333
 O2 0.386932 0.080927 0.8532  -0.597599333333
 O2 0.886908 0.08091 0.85320  -0.597599333333
 O1 0.483241 0.015343 0.83380  -0.613059333333
 O1 0.983226 0.015333 0.83378  -0.613059333333
