#======================================================================

# CRYSTAL DATA

#----------------------------------------------------------------------

data_VESTA_phase_1


_pd_phase_name                         MOF
_cell_length_a                         12.16000
_cell_length_b                         12.16200
_cell_length_c                         12.71100
_cell_angle_alpha                      102.47000
_cell_angle_beta                       102.44100
_cell_angle_gamma                      103.40900
_symmetry_space_group_name_H-M         "P 1"
_symmetry_Int_Tables_number            1

loop_
_symmetry_equiv_pos_as_xyz
   "x, y, z"

loop_
   _atom_site_label
   _atom_site_fract_x
   _atom_site_fract_y
   _atom_site_fract_z
 _atom_site_charge
 Ba1 0.795604 0.204577 0.75023  1.6364845614
 Ba1 0.204431 0.795465 0.24971  1.6364845614
 Zn1 0.822828 0.426756 0.04868  1.0427845614
 Zn1 0.573417 0.177754 0.45262  1.0427845614
 Zn1 0.177207 0.573281 0.95127  1.0427845614
 Zn1 0.426622 0.8223 0.54733  1.0427845614
 H1 0.047334 0.095114 0.99001  0.100647061404
 H1 0.198137 0.024363 0.10029  0.100647061404
 H1 0.289939 0.339686 0.37253  0.100647061404
 H1 0.134045 0.406192 0.26602  0.100647061404
 H1 0.604346 0.173828 0.16575  0.100647061404
 H1 0.51949 0.0 0.8114  0.100647061404
 H2 0.902244 0.504656 0.88978  0.452254561404
 H2 0.763072 0.47513 0.85490  0.452254561404
 H1 0.904681 0.953306 0.51028  0.100647061404
 H1 0.975649 0.802461 0.40018  0.100647061404
 H1 0.660524 0.710355 0.1277  0.100647061404
 H1 0.593952 0.866429 0.23394  0.100647061404
 H1 0.825877 0.395524 0.33460  0.100647061404
 H1 0.990506 0.481167 0.68874  0.100647061404
 H2 0.495697 0.097649 0.61097  0.452254561404
 H2 0.524819 0.236788 0.64632  0.452254561404
 H1 0.952707 0.904928 0.  0.100647061404
 H1 0.801903 0.97568 0.89965  0.100647061404
 H1 0.710096 0.660358 0.62741  0.100647061404
 H1 0.865991 0.59385 0.73392  0.100647061404
 H1 0.395682 0.826211 0.83419  0.100647061404
 H1 0.480539 0.990077 0.18850  0.100647061404
 H2 0.097793 0.495385 0.11016  0.452254561404
 H2 0.236966 0.524915 0.14505  0.452254561404
 H1 0.095355 0.046741 0.48966  0.100647061404
 H1 0.024384 0.197583 0.59976  0.100647061404
 H1 0.339508 0.289689 0.87221  0.100647061404
 H1 0.406082 0.133618 0.76600  0.100647061404
 H1 0.174159 0.60452 0.66534  0.100647061404
 H1 0.0 0.518875 0.31120  0.100647061404
 H2 0.50434 0.902402 0.38897  0.452254561404
 H2 0.47522 0.763263 0.35363  0.452254561404
 C1 0.983274 0.289422 0.05464  0.70731122807
 C2 0.080273 0.254443 0.12036  -0.130012105263
 C3 0.099943 0.147347 0.07436  -0.0586796052632
 C3 0.184243 0.108188 0.13606  -0.0586796052632
 C2 0.25273 0.177131 0.24420  -0.130012105263
 C3 0.235836 0.285916 0.28905  -0.0586796052632
 C3 0.149242 0.323692 0.22842  -0.0586796052632
 C1 0.343293 0.133875 0.31030  0.70731122807
 C1 0.642369 0.212959 0.97154  0.70731122807
 C2 0.568523 0.103548 0.98685  -0.130012105263
 C3 0.558355 0.097488 0.09358  -0.0586796052632
 C3 0.509821 0.0 0.89362  -0.0586796052632
 C1 0.710332 0.01721 0.44541  0.70731122807
 C2 0.745473 0.920231 0.37978  -0.130012105263
 C3 0.852555 0.900638 0.42591  -0.0586796052632
 C3 0.891818 0.816296 0.36434  -0.0586796052632
 C2 0.82296 0.747675 0.25622  -0.130012105263
 C3 0.714213 0.764532 0.21121  -0.0586796052632
 C3 0.676384 0.851218 0.27168  -0.0586796052632
 C1 0.866178 0.656891 0.19036  0.70731122807
 C1 0.78717 0.358142 0.52912  0.70731122807
 C2 0.896555 0.431729 0.51345  -0.130012105263
 C3 0.902355 0.441598 0.40661  -0.0586796052632
 C3 0.995081 0.490567 0.60645  -0.0586796052632
 C1 0.016762 0.710617 0.94530  0.70731122807
 C2 0.919766 0.745599 0.87958  -0.130012105263
 C3 0.900097 0.852694 0.92558  -0.0586796052632
 C3 0.8158 0.891857 0.86388  -0.0586796052632
 C2 0.747302 0.82291 0.75574  -0.130012105263
 C3 0.764203 0.71413 0.71089  -0.0586796052632
 C3 0.850793 0.67635 0.77152  -0.0586796052632
 C1 0.656749 0.866172 0.68964  0.70731122807
 C1 0.357663 0.787077 0.02840  0.70731122807
 C2 0.431504 0.896491 0.01309  -0.130012105263
 C3 0.441674 0.902551 0.90636  -0.0586796052632
 C3 0.490208 0.994834 0.10632  -0.0586796052632
 C1 0.2897 0.982831 0.55453  0.70731122807
 C2 0.254567 0.079823 0.62015  -0.130012105263
 C3 0.147477 0.099405 0.57403  -0.0586796052632
 C3 0.108215 0.183748 0.63559  -0.0586796052632
 C2 0.177073 0.252368 0.74372  -0.130012105263
 C3 0.28582 0.235512 0.78873  -0.0586796052632
 C3 0.323649 0.148825 0.72825  -0.0586796052632
 C1 0.133852 0.343148 0.80958  0.70731122807
 C1 0.212869 0.641896 0.47082  0.70731122807
 C2 0.103479 0.568319 0.48649  -0.130012105263
 C3 0.097682 0.558443 0.59333  -0.0586796052632
 C3 0.0 0.509473 0.39349  -0.0586796052632
 O1 0.910111 0.218293 0.96837  -0.683015438596
 O2 0.979737 0.397921 0.09404  -0.61742877193
 O1 0.32944 0.025243 0.29348  -0.683015438596
 O2 0.432819 0.215169 0.38157  -0.61742877193
 O2 0.706834 0.293293 0.06240  -0.61742877193
 O1 0.63931 0.221958 0.87381  -0.683015438596
 O3 0.826289 0.445847 0.88854  -0.847905438596
 O1 0.781317 0.090373 0.53175  -0.683015438596
 O2 0.601887 0.020762 0.40586  -0.61742877193
 O1 0.974797 0.670831 0.20685  -0.683015438596
 O2 0.784853 0.567022 0.11961  -0.61742877193
 O2 0.706565 0.293776 0.43844  -0.61742877193
 O1 0.778426 0.36115 0.62693  -0.683015438596
 O3 0.554412 0.173847 0.61259  -0.847905438596
 O1 0.089926 0.781746 0.03157  -0.683015438596
 O2 0.0203 0.602119 0.90590  -0.61742877193
 O1 0.670596 0.974804 0.70647  -0.683015438596
 O2 0.567215 0.784879 0.61838  -0.61742877193
 O2 0.293195 0.706746 0.93754  -0.61742877193
 O1 0.360721 0.778075 0.12613  -0.683015438596
 O3 0.173747 0.554195 0.11141  -0.847905438596
 O1 0.218721 0.909672 0.46819  -0.683015438596
 O2 0.398152 0.979292 0.59408  -0.61742877193
 O1 0.025233 0.329206 0.79308  -0.683015438596
 O2 0.215176 0.433014 0.88034  -0.61742877193
 O2 0.293468 0.706276 0.56150  -0.61742877193
 O1 0.22161 0.638885 0.37301  -0.683015438596
 O3 0.445627 0.826205 0.38736  -0.847905438596
