#======================================================================

# CRYSTAL DATA

#----------------------------------------------------------------------

data_VESTA_phase_1


_pd_phase_name                         MOF
_cell_length_a                         22.41200
_cell_length_b                         17.84500
_cell_length_c                         17.87600
_cell_angle_alpha                      79.01100
_cell_angle_beta                       71.82900
_cell_angle_gamma                      71.74500
_symmetry_space_group_name_H-M         "P 1"
_symmetry_Int_Tables_number            1

loop_
_symmetry_equiv_pos_as_xyz
   "x, y, z"

loop_
   _atom_site_label
   _atom_site_fract_x
   _atom_site_fract_y
   _atom_site_fract_z
 _atom_site_charge
 Zn1 0.328351 0.320987 0.92840  0.775936952381
 Zn1 0.828335 0.320996 0.92840  0.775936952381
 Zn1 0.046778 0.927967 0.32128  0.775936952381
 Zn1 0.546769 0.927972 0.32127  0.775936952381
 Zn1 0.421754 0.571949 0.178  0.775936952381
 Zn1 0.921742 0.571942 0.17870  0.775936952381
 Zn1 0.203224 0.179066 0.57159  0.775936952381
 Zn1 0.703211 0.179066 0.57159  0.775936952381
 Zn1 0.171632 0.678983 0.07160  0.775936952381
 Zn1 0.671618 0.678994 0.07160  0.775936952381
 Zn1 0.4532 0.072004 0.6787  0.775936952381
 Zn1 0.95319 0.072009 0.67872  0.775936952381
 Zn1 0.078224 0.428037 0.82131  0.775936952381
 Zn1 0.578216 0.428034 0.82131  0.775936952381
 Zn1 0.296758 0.820916 0.42841  0.775936952381
 Zn1 0.796745 0.820907 0.42841  0.775936952381
 Zn1 0.374763 0.249995 0.25006  0.775936952381
 Zn1 0.874745 0.249992 0.25007  0.775936952381
 Zn1 0.125225 0.74999 0.74993  0.775936952381
 Zn1 0.625212 0.749984 0.74993  0.775936952381
 H1 0.371792 0.106056 0.16283  0.108470952381
 H1 0.871774 0.10606 0.16283  0.108470952381
 H1 0.344873 0.138764 0.0165  0.108470952381
 H1 0.844857 0.138771 0.01650  0.108470952381
 H1 0.434851 0.343337 0.76690  0.108470952381
 H1 0.934831 0.343346 0.76689  0.108470952381
 H1 0.440878 0.549581 0.82820  0.108470952381
 H1 0.940864 0.549587 0.82819  0.108470952381
 H1 0.325722 0.502749 0.88128  0.108470952381
 H1 0.825708 0.502756 0.88127  0.108470952381
 H1 0.492481 0.162135 0.10655  0.108470952381
 H1 0.992461 0.162123 0.1065  0.108470952381
 H1 0.076464 0.015853 0.1393  0.108470952381
 H1 0.576458 0.015855 0.1393  0.108470952381
 H1 0.010476 0.765587 0.34266  0.108470952381
 H1 0.510454 0.765599 0.34265  0.108470952381
 H1 0.370409 0.827757 0.54959  0.108470952381
 H1 0.870387 0.827766 0.54959  0.108470952381
 H1 0.482543 0.880639 0.50264  0.108470952381
 H1 0.982525 0.88064 0.50264  0.108470952381
 H1 0.377404 0.337946 0.39351  0.108470952381
 H1 0.87738 0.337947 0.39351  0.108470952381
 H1 0.405191 0.483955 0.36061  0.108470952381
 H1 0.905165 0.483951 0.36061  0.108470952381
 H1 0.314971 0.734183 0.15696  0.108470952381
 H1 0.814959 0.734182 0.15696  0.108470952381
 H1 0.308884 0.672523 0.95059  0.108470952381
 H1 0.808868 0.672532 0.95059  0.108470952381
 H1 0.424074 0.619424 0.99747  0.108470952381
 H1 0.924059 0.619422 0.99747  0.108470952381
 H1 0.256701 0.393851 0.33737  0.108470952381
 H1 0.756678 0.393843 0.33736  0.108470952381
 H1 0.172846 0.361224 0.48336  0.108470952381
 H1 0.672822 0.361222 0.48335  0.108470952381
 H1 0.240016 0.157114 0.73325  0.108470952381
 H1 0.740004 0.157115 0.73324  0.108470952381
 H1 0.379741 0.950316 0.67215  0.108470952381
 H1 0.879725 0.950317 0.67216  0.108470952381
 H1 0.267609 0.997184 0.61913  0.108470952381
 H1 0.767595 0.997182 0.61914  0.108470952381
 H1 0.128194 0.893914 0.83717  0.108470952381
 H1 0.628173 0.89392 0.83717  0.108470952381
 H1 0.155108 0.861207 0.98350  0.108470952381
 H1 0.655088 0.861216 0.98350  0.108470952381
 H1 0.06514 0.656626 0.23312  0.108470952381
 H1 0.565119 0.656638 0.23311  0.108470952381
 H1 0.059097 0.450394 0.17182  0.108470952381
 H1 0.559084 0.450398 0.17180  0.108470952381
 H1 0.174256 0.497222 0.1187  0.108470952381
 H1 0.674246 0.497225 0.11871  0.108470952381
 H1 0.007506 0.837857 0.89345  0.108470952381
 H1 0.50749 0.837846 0.89345  0.108470952381
 H1 0.423506 0.984121 0.86069  0.108470952381
 H1 0.923497 0.984122 0.8606  0.108470952381
 H1 0.489516 0.234375 0.65736  0.108470952381
 H1 0.989497 0.234384 0.65736  0.108470952381
 H1 0.129571 0.172225 0.45041  0.108470952381
 H1 0.629553 0.17223 0.45041  0.108470952381
 H1 0.017433 0.119348 0.49736  0.108470952381
 H1 0.517422 0.119345 0.49736  0.108470952381
 H1 0.122589 0.662031 0.60649  0.108470952381
 H1 0.622569 0.662031 0.60649  0.108470952381
 H1 0.094811 0.51602 0.63939  0.108470952381
 H1 0.594788 0.516022 0.63939  0.108470952381
 H1 0.184998 0.265795 0.84305  0.108470952381
 H1 0.684992 0.265798 0.84304  0.108470952381
 H1 0.191094 0.327462 0.04942  0.108470952381
 H1 0.691078 0.327464 0.04942  0.108470952381
 H1 0.075905 0.380564 0.00254  0.108470952381
 H1 0.575887 0.380568 0.00254  0.108470952381
 H1 0.243295 0.606131 0.66264  0.108470952381
 H1 0.743276 0.606123 0.66264  0.108470952381
 H1 0.32715 0.638761 0.51665  0.108470952381
 H1 0.82713 0.638753 0.51665  0.108470952381
 H1 0.259957 0.842869 0.26676  0.108470952381
 H1 0.759944 0.842868 0.26676  0.108470952381
 H1 0.12024 0.049663 0.32783  0.108470952381
 H1 0.620227 0.049663 0.32784  0.108470952381
 H1 0.232369 0.002804 0.38086  0.108470952381
 H1 0.732356 0.0028 0.38087  0.108470952381
 C1 0.355252 0.162761 0.1301  0.036622702381
 C1 0.85523 0.162766 0.1301  0.036622702381
 C1 0.341861 0.179091 0.05664  0.036622702381
 C1 0.84184 0.179097 0.05663  0.036622702381
 C2 0.324001 0.288904 0.10265  0.294351952381
 C2 0.823977 0.288905 0.10266  0.294351952381
 C1 0.424872 0.287329 0.768  0.036622702381
 C1 0.924853 0.287338 0.76859  0.036622702381
 C2 0.454697 0.370151 0.90249  0.294351952381
 C2 0.954683 0.370157 0.90249  0.294351952381
 C1 0.432602 0.492832 0.85589  0.036622702381
 C1 0.932588 0.492839 0.85588  0.036622702381
 C1 0.375261 0.469379 0.88154  0.036622702381
 C1 0.875247 0.469386 0.88153  0.036622702381
 C1 0.497288 0.129556 0.16315  0.036622702381
 C1 0.997272 0.129549 0.16315  0.036622702381
 C1 0.039386 0.056088 0.17952  0.036622702381
 C1 0.539381 0.056092 0.17952  0.036622702381
 C2 0.479769 0.102424 0.28903  0.294351952381
 C2 0.979756 0.102422 0.28903  0.294351952381
 C1 0.047474 0.767725 0.28682  0.036622702381
 C1 0.547457 0.767734 0.28682  0.036622702381
 C2 0.408958 0.901686 0.37038  0.294351952381
 C2 0.908946 0.901677 0.37038  0.294351952381
 C1 0.393156 0.855347 0.49289  0.036622702381
 C1 0.893139 0.855348 0.492  0.036622702381
 C1 0.449463 0.880878 0.46937  0.036622702381
 C1 0.949448 0.880876 0.46937  0.036622702381
 C1 0.39413 0.370478 0.33688  0.036622702381
 C1 0.894109 0.370479 0.33688  0.036622702381
 C1 0.407953 0.443811 0.3204  0.036622702381
 C1 0.907929 0.443808 0.32045  0.036622702381
 C2 0.425542 0.3976 0.21099  0.294351952381
 C2 0.925524 0.397599 0.21  0.294351952381
 C1 0.325005 0.732035 0.21295  0.036622702381
 C1 0.824991 0.732033 0.21295  0.036622702381
 C2 0.295249 0.598002 0.12964  0.294351952381
 C2 0.795232 0.598009 0.12964  0.294351952381
 C1 0.317218 0.644741 0.00724  0.036622702381
 C1 0.817201 0.644748 0.00724  0.036622702381
 C1 0.374575 0.619087 0.03072  0.036622702381
 C1 0.874561 0.619086 0.03072  0.036622702381
 C1 0.252071 0.33716 0.37004  0.036622702381
 C1 0.752055 0.337153 0.37004  0.036622702381
 C1 0.210028 0.320875 0.44334  0.036622702381
 C1 0.710011 0.32087 0.44334  0.036622702381
 C2 0.269951 0.21103 0.39749  0.294351952381
 C2 0.769937 0.211024 0.39749  0.294351952381
 C1 0.20281 0.212998 0.73151  0.036622702381
 C1 0.70279 0.212992 0.73152  0.036622702381
 C2 0.341113 0.129711 0.59773  0.294351952381
 C2 0.841101 0.129708 0.59773  0.294351952381
 C1 0.356964 0.007068 0.64443  0.036622702381
 C1 0.856954 0.007066 0.64443  0.036622702381
 C1 0.300664 0.030547 0.6188  0.036622702381
 C1 0.800653 0.030544 0.61882  0.036622702381
 C1 0.144735 0.837209 0.86989  0.036622702381
 C1 0.64472 0.837216 0.86988  0.036622702381
 C1 0.158123 0.82088 0.94337  0.036622702381
 C1 0.65811 0.820888 0.94336  0.036622702381
 C2 0.175988 0.711068 0.89735  0.294351952381
 C2 0.675977 0.711075 0.89734  0.294351952381
 C1 0.075116 0.712637 0.23142  0.036622702381
 C1 0.575096 0.712648 0.23141  0.036622702381
 C2 0.04528 0.629826 0.0975  0.294351952381
 C2 0.545269 0.629835 0.09752  0.294351952381
 C1 0.067373 0.507143 0.14413  0.036622702381
 C1 0.567362 0.507149 0.14413  0.036622702381
 C1 0.124715 0.530596 0.11847  0.036622702381
 C1 0.624705 0.530601 0.11846  0.036622702381
 C1 0.002693 0.870431 0.83685  0.036622702381
 C1 0.502681 0.870424 0.83685  0.036622702381
 C1 0.460584 0.943885 0.82048  0.036622702381
 C1 0.960577 0.943888 0.82048  0.036622702381
 C2 0.020211 0.89756 0.71097  0.294351952381
 C2 0.520198 0.897556 0.71097  0.294351952381
 C1 0.452512 0.232241 0.71319  0.036622702381
 C1 0.952493 0.23225 0.71318  0.036622702381
 C2 0.091018 0.098305 0.62962  0.294351952381
 C2 0.591006 0.0983 0.62962  0.294351952381
 C1 0.106821 0.14464 0.50711  0.036622702381
 C1 0.606804 0.144645 0.50711  0.036622702381
 C1 0.050512 0.11911 0.53063  0.036622702381
 C1 0.550498 0.119111 0.53063  0.036622702381
 C1 0.105856 0.629503 0.66312  0.036622702381
 C1 0.605831 0.629506 0.66312  0.036622702381
 C1 0.092037 0.55617 0.67956  0.036622702381
 C1 0.592009 0.556173 0.67956  0.036622702381
 C2 0.074442 0.602383 0.78901  0.294351952381
 C2 0.574417 0.602385 0.78901  0.294351952381
 C1 0.174967 0.267946 0.78706  0.036622702381
 C1 0.67495 0.267938 0.78706  0.036622702381
 C2 0.204735 0.401962 0.87036  0.294351952381
 C2 0.704717 0.401975 0.8703  0.294351952381
 C1 0.182762 0.35524 0.99277  0.036622702381
 C1 0.682746 0.355246 0.99277  0.036622702381
 C1 0.125404 0.380898 0.96929  0.036622702381
 C1 0.625387 0.380903 0.96929  0.036622702381
 C1 0.247917 0.662822 0.62996  0.036622702381
 C1 0.747898 0.662814 0.62996  0.036622702381
 C1 0.28996 0.679109 0.55666  0.036622702381
 C1 0.78994 0.679101 0.55666  0.036622702381
 C2 0.230032 0.788952 0.60251  0.294351952381
 C2 0.730015 0.788945 0.60251  0.294351952381
 C1 0.297165 0.786987 0.26849  0.036622702381
 C1 0.79715 0.786983 0.26849  0.036622702381
 C2 0.158865 0.870274 0.40227  0.294351952381
 C2 0.658848 0.870275 0.40228  0.294351952381
 C1 0.143011 0.992916 0.35557  0.036622702381
 C1 0.642997 0.992916 0.35558  0.036622702381
 C1 0.199312 0.96944 0.3811  0.036622702381
 C1 0.699298 0.969438 0.38119  0.036622702381
 C2 0.379023 0.192518 0.80737  0.294351952381
 C2 0.879006 0.192525 0.80737  0.294351952381
 C2 0.120958 0.807452 0.1926  0.294351952381
 C2 0.620942 0.80746 0.19263  0.294351952381
 C2 0.371056 0.692432 0.30750  0.294351952381
 C2 0.871042 0.692428 0.30750  0.294351952381
 C2 0.12892 0.307555 0.69250  0.294351952381
 C2 0.628894 0.307542 0.69252  0.294351952381
 N1 0.344162 0.232986 0.15868  -0.387213047619
 N1 0.844144 0.232989 0.15868  -0.387213047619
 N1 0.322195 0.259391 0.0392  -0.387213047619
 N1 0.822178 0.259396 0.03922  -0.387213047619
 N2 0.301736 0.370925 0.11285  0.524294952381
 N2 0.801716 0.370927 0.11285  0.524294952381
 N1 0.378413 0.261657 0.82869  -0.387213047619
 N1 0.878393 0.261667 0.82869  -0.387213047619
 N1 0.389669 0.391077 0.9104  -0.387213047619
 N1 0.889655 0.391085 0.91042  -0.387213047619
 N1 0.482862 0.429686 0.86934  -0.387213047619
 N1 0.982848 0.429694 0.86934  -0.387213047619
 N2 0.490288 0.293384 0.92845  0.524294952381
 N2 0.990276 0.293392 0.92844  0.524294952381
 N1 0.459265 0.158321 0.23319  -0.387213047619
 N1 0.959245 0.158312 0.23319  -0.387213047619
 N1 0.02798 0.038893 0.25964  -0.387213047619
 N1 0.527977 0.038897 0.25964  -0.387213047619
 N2 0.456326 0.112883 0.37081  0.524294952381
 N2 0.95631 0.112878 0.37081  0.524294952381
 N1 0.076475 0.828198 0.26176  -0.387213047619
 N1 0.576456 0.828207 0.26176  -0.387213047619
 N1 0.459678 0.90959 0.39118  -0.387213047619
 N1 0.959667 0.90958 0.39118  -0.387213047619
 N1 0.3676 0.868734 0.42991  -0.387213047619
 N1 0.867585 0.868731 0.42991  -0.387213047619
 N2 0.398727 0.927335 0.29369  0.524294952381
 N2 0.898717 0.927324 0.29369  0.524294952381
 N1 0.405073 0.341781 0.26688  -0.387213047619
 N1 0.905051 0.34178 0.26687  -0.387213047619
 N1 0.427729 0.461005 0.24031  -0.387213047619
 N1 0.927717 0.461001 0.24031  -0.387213047619
 N2 0.447752 0.387154 0.12921  0.524294952381
 N2 0.947733 0.387161 0.12920  0.524294952381
 N1 0.371732 0.671719 0.23815  -0.387213047619
 N1 0.87172 0.671717 0.23815  -0.387213047619
 N1 0.360251 0.590126 0.10884  -0.387213047619
 N1 0.860237 0.590123 0.10884  -0.387213047619
 N1 0.26703 0.63119 0.07018  -0.387213047619
 N1 0.767015 0.631199 0.07018  -0.387213047619
 N2 0.259716 0.572031 0.20624  0.524294952381
 N2 0.759699 0.57204 0.20623  0.524294952381
 N1 0.290301 0.266914 0.34158  -0.387213047619
 N1 0.790284 0.266906 0.3415  -0.387213047619
 N1 0.221668 0.240589 0.46074  -0.387213047619
 N1 0.72165 0.240583 0.46074  -0.387213047619
 N2 0.293589 0.129016 0.38730  0.524294952381
 N2 0.79356 0.129009 0.38730  0.524294952381
 N1 0.17369 0.238591 0.67119  -0.387213047619
 N1 0.673666 0.238585 0.67120  -0.387213047619
 N1 0.290421 0.108832 0.58986  -0.387213047619
 N1 0.790408 0.108829 0.58986  -0.387213047619
 N1 0.38248 0.070171 0.63087  -0.387213047619
 N1 0.882467 0.07017 0.63087  -0.387213047619
 N2 0.351343 0.206464 0.57181  0.524294952381
 N2 0.851323 0.206466 0.57182  0.524294952381
 N1 0.155825 0.766985 0.84132  -0.387213047619
 N1 0.655809 0.766991 0.84132  -0.387213047619
 N1 0.177789 0.74058 0.96078  -0.387213047619
 N1 0.677775 0.740588 0.96078  -0.387213047619
 N2 0.198256 0.629046 0.88715  0.524294952381
 N2 0.69823 0.629052 0.88716  0.524294952381
 N1 0.121574 0.738309 0.17132  -0.387213047619
 N1 0.621553 0.738321 0.17131  -0.387213047619
 N1 0.11031 0.608895 0.08959  -0.387213047619
 N1 0.610299 0.6089 0.0895  -0.387213047619
 N1 0.017115 0.570289 0.13067  -0.387213047619
 N1 0.517107 0.570293 0.13066  -0.387213047619
 N2 0.009692 0.706586 0.07155  0.524294952381
 N2 0.509687 0.706589 0.07154  0.524294952381
 N1 0.040725 0.841671 0.76681  -0.387213047619
 N1 0.540706 0.84166 0.76681  -0.387213047619
 N1 0.471988 0.961082 0.74036  -0.387213047619
 N1 0.971985 0.961086 0.74036  -0.387213047619
 N2 0.043664 0.887108 0.62919  0.524294952381
 N2 0.54364 0.887107 0.62919  0.524294952381
 N1 0.42351 0.171771 0.73824  -0.387213047619
 N1 0.923491 0.171778 0.73824  -0.387213047619
 N1 0.040296 0.090403 0.60882  -0.387213047619
 N1 0.540287 0.09039 0.60882  -0.387213047619
 N1 0.132376 0.131256 0.57009  -0.387213047619
 N1 0.632364 0.131252 0.57009  -0.387213047619
 N2 0.101253 0.072651 0.70630  0.524294952381
 N2 0.601247 0.072632 0.70630  0.524294952381
 N1 0.094914 0.658201 0.7331  -0.387213047619
 N1 0.594897 0.658199 0.73312  -0.387213047619
 N1 0.072256 0.538977 0.75969  -0.387213047619
 N1 0.572238 0.538973 0.75969  -0.387213047619
 N2 0.052244 0.612818 0.87080  0.524294952381
 N2 0.552235 0.612813 0.870  0.524294952381
 N1 0.128239 0.328262 0.7618  -0.387213047619
 N1 0.62822 0.328261 0.76186  -0.387213047619
 N1 0.13973 0.40985 0.89116  -0.387213047619
 N1 0.639713 0.409856 0.89117  -0.387213047619
 N1 0.232951 0.368783 0.92982  -0.387213047619
 N1 0.732933 0.36879 0.92983  -0.387213047619
 N2 0.240268 0.427923 0.79376  0.524294952381
 N2 0.740248 0.427929 0.79377  0.524294952381
 N1 0.209688 0.733067 0.65842  -0.387213047619
 N1 0.709669 0.733061 0.65842  -0.387213047619
 N1 0.27832 0.759397 0.53926  -0.387213047619
 N1 0.778301 0.75939 0.53926  -0.387213047619
 N2 0.206404 0.870967 0.61271  0.524294952381
 N2 0.70639 0.870961 0.61271  0.524294952381
 N1 0.326286 0.761396 0.32881  -0.387213047619
 N1 0.826273 0.761393 0.32881  -0.387213047619
 N1 0.209558 0.891157 0.41014  -0.387213047619
 N1 0.709543 0.891153 0.41015  -0.387213047619
 N1 0.117499 0.929811 0.36913  -0.387213047619
 N1 0.617485 0.929812 0.36913  -0.387213047619
 N2 0.148643 0.79352 0.42818  0.524294952381
 N2 0.648629 0.793517 0.42818  0.524294952381
 N2 0.333329 0.149263 0.84999  0.524294952381
 N2 0.833316 0.149263 0.84999  0.524294952381
 N2 0.166654 0.850708 0.15002  0.524294952381
 N2 0.666634 0.850717 0.15002  0.524294952381
 N2 0.416964 0.649293 0.35038  0.524294952381
 N2 0.91695 0.649291 0.35039  0.524294952381
 N2 0.083016 0.350692 0.64962  0.524294952381
 N2 0.583006 0.350705 0.64960  0.524294952381
 O1 0.303181 0.391388 0.17554  -0.361188297619
 O1 0.803165 0.391391 0.17554  -0.361188297619
 O1 0.280563 0.418416 0.05968  -0.361188297619
 O1 0.780549 0.41842 0.05968  -0.361188297619
 O1 0.461018 0.240504 0.95266  -0.361188297619
 O1 0.961006 0.240513 0.95267  -0.361188297619
 O1 0.292153 0.175364 0.91162  -0.361188297619
 O1 0.792137 0.175372 0.91162  -0.361188297619
 O1 0.04857 0.283839 0.92575  -0.361188297619
 O1 0.548564 0.283831 0.92576  -0.361188297619
 O1 0.413189 0.175548 0.39120  -0.361188297619
 O1 0.913168 0.17554 0.39120  -0.361188297619
 O1 0.480785 0.059939 0.41815  -0.361188297619
 O1 0.980772 0.059936 0.41815  -0.361188297619
 O1 0.442583 0.950696 0.2406  -0.361188297619
 O1 0.942581 0.950666 0.24066  -0.361188297619
 O1 0.164025 0.911903 0.17715  -0.361188297619
 O1 0.664013 0.911906 0.17715  -0.361188297619
 O1 0.346331 0.925212 0.2843  -0.361188297619
 O1 0.846321 0.925203 0.28431  -0.361188297619
 O1 0.445685 0.324602 0.10894  -0.361188297619
 O1 0.945669 0.324611 0.1089  -0.361188297619
 O1 0.469404 0.439985 0.08175  -0.361188297619
 O1 0.969408 0.43997 0.0817  -0.361188297619
 O1 0.28897 0.548083 0.25912  -0.361188297619
 O1 0.788953 0.54807 0.2591  -0.361188297619
 O1 0.458676 0.588313 0.32322  -0.361188297619
 O1 0.95865 0.588303 0.32323  -0.361188297619
 O1 0.201533 0.574432 0.21565  -0.361188297619
 O1 0.70151 0.574466 0.21565  -0.361188297619
 O1 0.336821 0.108423 0.32492  -0.361188297619
 O1 0.83681 0.108412 0.32494  -0.361188297619
 O1 0.26914 0.081677 0.44016  -0.361188297619
 O1 0.769116 0.081664 0.44015  -0.361188297619
 O1 0.307696 0.259397 0.5477  -0.361188297619
 O1 0.807672 0.259389 0.5477  -0.361188297619
 O1 0.085975 0.324716 0.58771  -0.361188297619
 O1 0.585957 0.32472 0.58771  -0.361188297619
 O1 0.403521 0.215987 0.57451  -0.361188297619
 O1 0.903509 0.215986 0.57450  -0.361188297619
 O1 0.196816 0.608578 0.82446  -0.361188297619
 O1 0.696788 0.608589 0.82446  -0.361188297619
 O1 0.219421 0.581556 0.94033  -0.361188297619
 O1 0.719401 0.581558 0.94033  -0.361188297619
 O1 0.038958 0.759471 0.04735  -0.361188297619
 O1 0.538957 0.759469 0.04729  -0.361188297619
 O1 0.207828 0.824607 0.0883  -0.361188297619
 O1 0.707809 0.824612 0.08838  -0.361188297619
 O1 0.451392 0.716147 0.07431  -0.361188297619
 O1 0.951399 0.716138 0.07424  -0.361188297619
 O1 0.086796 0.824439 0.60880  -0.361188297619
 O1 0.586776 0.824442 0.60880  -0.361188297619
 O1 0.019202 0.94005 0.58185  -0.361188297619
 O1 0.519178 0.940047 0.58185  -0.361188297619
 O1 0.057403 0.049274 0.75933  -0.361188297619
 O1 0.557393 0.049264 0.75933  -0.361188297619
 O1 0.335952 0.088079 0.8228  -0.361188297619
 O1 0.83594 0.088077 0.8228  -0.361188297619
 O1 0.153646 0.074789 0.7156  -0.361188297619
 O1 0.653638 0.074767 0.71568  -0.361188297619
 O1 0.0543 0.675375 0.89107  -0.361188297619
 O1 0.554288 0.675374 0.8910  -0.361188297619
 O1 0.030562 0.560009 0.91826  -0.361188297619
 O1 0.530538 0.560016 0.91826  -0.361188297619
 O1 0.211013 0.451874 0.74088  -0.361188297619
 O1 0.710992 0.451889 0.74089  -0.361188297619
 O1 0.041312 0.411681 0.67677  -0.361188297619
 O1 0.54129 0.411675 0.6767  -0.361188297619
 O1 0.298453 0.425516 0.78435  -0.361188297619
 O1 0.798436 0.425517 0.78435  -0.361188297619
 O1 0.163167 0.891553 0.67509  -0.361188297619
 O1 0.663148 0.891548 0.67508  -0.361188297619
 O1 0.230835 0.918315 0.55985  -0.361188297619
 O1 0.73082 0.91831 0.55985  -0.361188297619
 O1 0.192288 0.740604 0.45230  -0.361188297619
 O1 0.692275 0.740594 0.4522  -0.361188297619
 O1 0.414005 0.675272 0.41229  -0.361188297619
 O1 0.913996 0.675279 0.41228  -0.361188297619
 O1 0.096462 0.783991 0.42550  -0.361188297619
 O1 0.596445 0.783993 0.42550  -0.361188297619
