#======================================================================

# CRYSTAL DATA

#----------------------------------------------------------------------

data_VESTA_phase_1


_pd_phase_name                         MOF
_cell_length_a                         15.82600
_cell_length_b                         15.80500
_cell_length_c                         18.63700
_cell_angle_alpha                      90.00000
_cell_angle_beta                       90.00200
_cell_angle_gamma                      89.99600
_symmetry_space_group_name_H-M         "P 1"
_symmetry_Int_Tables_number            1

loop_
_symmetry_equiv_pos_as_xyz
   "x, y, z"

loop_
   _atom_site_label
   _atom_site_fract_x
   _atom_site_fract_y
   _atom_site_fract_z
 _atom_site_charge
 Zn1 0.696097 0.858899 0.40284  0.734672647059
 Zn1 0.503817 0.832961 0.6812  0.734672647059
 Zn1 0.803879 0.141074 0.90283  0.734672647059
 Zn1 0.996169 0.167024 0.18127  0.734672647059
 Zn1 0.303886 0.358911 0.09715  0.734672647059
 Zn1 0.496148 0.332973 0.81873  0.734672647059
 Zn1 0.196087 0.641065 0.59715  0.734672647059
 Zn1 0.003818 0.66701 0.31872  0.734672647059
 Zn1 0.303879 0.141078 0.59715  0.734672647059
 Zn1 0.496159 0.167016 0.31873  0.734672647059
 Zn1 0.196097 0.858903 0.09715  0.734672647059
 Zn1 0.003807 0.832953 0.8187  0.734672647059
 Zn1 0.69609 0.641065 0.90283  0.734672647059
 Zn1 0.503828 0.667004 0.18125  0.734672647059
 Zn1 0.803886 0.358915 0.40283  0.734672647059
 Zn1 0.996157 0.332967 0.68126  0.734672647059
 H1 0.882272 0.95268 0.41865  0.0779138970588
 H1 0.026118 0.863334 0.38013  0.0779138970588
 H1 0.668348 0.652571 0.42331  0.0779138970588
 H1 0.737304 0.954819 0.25334  0.0779138970588
 H1 0.782256 0.920921 0.55212  0.0779138970588
 H1 0.542014 0.817217 0.50950  0.0779138970588
 H1 0.692165 0.908114 0.67965  0.0779138970588
 H1 0.573192 0.825176 0.27113  0.0779138970588
 H1 0.578284 0.564558 0.31947  0.0779138970588
 H1 0.637529 0.090142 0.20927  0.0779138970588
 H1 0.5583 0.009817 0.41410  0.0779138970588
 H1 0.81155 0.711228 0.34363  0.0779138970588
 H1 0.617714 0.047254 0.91854  0.0779138970588
 H1 0.473869 0.136605 0.88003  0.0779138970588
 H1 0.83172 0.347376 0.92336  0.0779138970588
 H1 0.762665 0.045171 0.75333  0.0779138970588
 H1 0.717751 0.079007 0.05211  0.0779138970588
 H1 0.957935 0.182849 0.00953  0.0779138970588
 H1 0.807837 0.091827 0.17965  0.0779138970588
 H1 0.926738 0.1748 0.77109  0.0779138970588
 H1 0.921792 0.4354 0.81954  0.0779138970588
 H1 0.862446 0.909859 0.70925  0.0779138970588
 H1 0.941633 0.990118 0.91412  0.0779138970588
 H1 0.688409 0.288799 0.84372  0.0779138970588
 H1 0.117697 0.452695 0.08134  0.0779138970588
 H1 0.973863 0.363355 0.1198  0.0779138970588
 H1 0.331482 0.152548 0.07675  0.0779138970588
 H1 0.262665 0.454855 0.24664  0.0779138970588
 H1 0.217776 0.421167 0.94789  0.0779138970588
 H1 0.457889 0.317102 0.99046  0.0779138970588
 H1 0.307868 0.408362 0.82036  0.0779138970588
 H1 0.426893 0.325187 0.22879  0.0779138970588
 H1 0.421543 0.06453 0.18059  0.0779138970588
 H1 0.362424 0.590164 0.2907  0.0779138970588
 H1 0.441707 0.509788 0.08590  0.0779138970588
 H1 0.188443 0.211264 0.15641  0.0779138970588
 H1 0.382253 0.547245 0.58146  0.0779138970588
 H1 0.526089 0.636587 0.61998  0.0779138970588
 H1 0.168251 0.847381 0.57662  0.0779138970588
 H1 0.237308 0.54514 0.74665  0.0779138970588
 H1 0.282153 0.578731 0.4479  0.0779138970588
 H1 0.042108 0.682953 0.49044  0.0779138970588
 H1 0.192069 0.591562 0.32037  0.0779138970588
 H1 0.073183 0.674795 0.72885  0.0779138970588
 H1 0.078184 0.935407 0.68045  0.0779138970588
 H1 0.137542 0.409841 0.79072  0.0779138970588
 H1 0.058293 0.490162 0.5858  0.0779138970588
 H1 0.311541 0.788779 0.65631  0.0779138970588
 H1 0.117697 0.047296 0.58133  0.0779138970588
 H1 0.973853 0.136643 0.6198  0.0779138970588
 H1 0.331588 0.347412 0.576  0.0779138970588
 H1 0.26268 0.045167 0.74665  0.0779138970588
 H1 0.217712 0.07907 0.44786  0.0779138970588
 H1 0.457962 0.182754 0.49049  0.0779138970588
 H1 0.307805 0.091875 0.32033  0.0779138970588
 H1 0.426787 0.174801 0.72885  0.0779138970588
 H1 0.421656 0.435425 0.68053  0.0779138970588
 H1 0.362456 0.909845 0.79072  0.0779138970588
 H1 0.441664 0.99015 0.58588  0.0779138970588
 H1 0.188422 0.288742 0.65636  0.0779138970588
 H1 0.382263 0.952715 0.08142  0.0779138970588
 H1 0.526107 0.863365 0.11993  0.0779138970588
 H1 0.168232 0.652608 0.07662  0.0779138970588
 H1 0.237305 0.954806 0.2466  0.0779138970588
 H1 0.282228 0.920961 0.94787  0.0779138970588
 H1 0.042035 0.817139 0.99046  0.0779138970588
 H1 0.19214 0.908144 0.82033  0.0779138970588
 H1 0.073247 0.825179 0.22890  0.0779138970588
 H1 0.078157 0.564584 0.18043  0.0779138970588
 H1 0.137522 0.090116 0.29073  0.0779138970588
 H1 0.058345 0.009864 0.08586  0.0779138970588
 H1 0.311565 0.711189 0.15628  0.0779138970588
 H1 0.882277 0.54729 0.91865  0.0779138970588
 H1 0.026112 0.63663 0.88012  0.0779138970588
 H1 0.668474 0.847425 0.92324  0.0779138970588
 H1 0.737298 0.545132 0.75334  0.0779138970588
 H1 0.782196 0.578806 0.05210  0.0779138970588
 H1 0.542084 0.682873 0.00952  0.0779138970588
 H1 0.692104 0.591614 0.17963  0.0779138970588
 H1 0.573081 0.674788 0.771  0.0779138970588
 H1 0.578413 0.935443 0.81940  0.0779138970588
 H1 0.637536 0.409825 0.70927  0.0779138970588
 H1 0.558266 0.490191 0.91408  0.0779138970588
 H1 0.811529 0.788711 0.84356  0.0779138970588
 H1 0.617712 0.45273 0.4185  0.0779138970588
 H1 0.473878 0.363386 0.38002  0.0779138970588
 H1 0.831705 0.152598 0.42335  0.0779138970588
 H1 0.762656 0.454846 0.25334  0.0779138970588
 H1 0.717813 0.421227 0.55208  0.0779138970588
 H1 0.957871 0.317037 0.50954  0.0779138970588
 H1 0.807897 0.408395 0.67962  0.0779138970588
 H1 0.92678 0.325184 0.27113  0.0779138970588
 H1 0.921778 0.06457 0.31953  0.0779138970588
 H1 0.862426 0.590141 0.20926  0.0779138970588
 H1 0.941685 0.509812 0.41409  0.0779138970588
 H1 0.688433 0.211209 0.34367  0.0779138970588
 C1 0.888742 0.889121 0.39740  -0.0327023529412
 C1 0.960147 0.844844 0.3781  -0.0327023529412
 C1 0.635166 0.675481 0.37622  -0.0327023529412
 C1 0.685191 0.986285 0.28013  -0.0327023529412
 C1 0.718563 0.898457 0.56204  -0.0327023529412
 C2 0.594761 0.844939 0.53837  0.235110147059
 C1 0.674004 0.892214 0.6251  -0.0327023529412
 C2 0.586734 0.766048 0.29840  0.235110147059
 C1 0.590443 0.631818 0.32481  -0.0327023529412
 C1 0.635777 0.053215 0.25831  -0.0327023529412
 C2 0.593553 0.013262 0.36424  0.235110147059
 C2 0.850411 0.764836 0.35892  0.235110147059
 C1 0.611238 0.110835 0.8973  -0.0327023529412
 C1 0.539831 0.155113 0.8780  -0.0327023529412
 C1 0.864874 0.324474 0.87626  -0.0327023529412
 C1 0.814771 0.013695 0.78013  -0.0327023529412
 C1 0.781431 0.101503 0.06203  -0.0327023529412
 C2 0.905203 0.15509 0.03839  0.235110147059
 C1 0.825989 0.107754 0.1251  -0.0327023529412
 C2 0.913232 0.233921 0.79839  0.235110147059
 C1 0.909602 0.368143 0.82485  -0.0327023529412
 C1 0.864189 0.946771 0.75830  -0.0327023529412
 C2 0.906392 0.986689 0.86426  0.235110147059
 C2 0.649554 0.235166 0.85896  0.235110147059
 C1 0.111235 0.38914 0.10260  -0.0327023529412
 C1 0.039836 0.344866 0.12189  -0.0327023529412
 C1 0.364719 0.175464 0.12380  -0.0327023529412
 C1 0.314783 0.48631 0.21985  -0.0327023529412
 C1 0.281442 0.398624 0.93796  -0.0327023529412
 C2 0.405177 0.344919 0.96160  0.235110147059
 C1 0.326003 0.392384 0.8748  -0.0327023529412
 C2 0.413282 0.26605 0.20156  0.235110147059
 C1 0.409439 0.131799 0.17522  -0.0327023529412
 C1 0.364193 0.553226 0.24167  -0.0327023529412
 C2 0.406443 0.513246 0.13575  0.235110147059
 C2 0.149575 0.264868 0.14111  0.235110147059
 C1 0.388724 0.610821 0.60267  -0.0327023529412
 C1 0.460126 0.655098 0.62195  -0.0327023529412
 C1 0.135088 0.824479 0.62371  -0.0327023529412
 C1 0.185196 0.513676 0.71986  -0.0327023529412
 C1 0.218502 0.601313 0.4379  -0.0327023529412
 C2 0.094803 0.655096 0.46159  0.235110147059
 C1 0.173945 0.607567 0.37482  -0.0327023529412
 C2 0.086703 0.733918 0.70157  0.235110147059
 C1 0.090362 0.868147 0.67512  -0.0327023529412
 C1 0.135781 0.446767 0.74168  -0.0327023529412
 C2 0.093549 0.486716 0.63574  0.235110147059
 C2 0.350401 0.735148 0.64106  0.235110147059
 C1 0.111228 0.110854 0.60258  -0.0327023529412
 C1 0.039824 0.155131 0.62187  -0.0327023529412
 C1 0.364781 0.324501 0.62377  -0.0327023529412
 C1 0.314789 0.013698 0.71985  -0.0327023529412
 C1 0.281407 0.101529 0.4379  -0.0327023529412
 C2 0.405213 0.155036 0.46161  0.235110147059
 C1 0.325967 0.107771 0.37480  -0.0327023529412
 C2 0.413234 0.233931 0.70159  0.235110147059
 C1 0.409505 0.368163 0.6751  -0.0327023529412
 C1 0.364204 0.946768 0.74167  -0.0327023529412
 C2 0.406417 0.98671 0.63574  0.235110147059
 C2 0.14956 0.235135 0.64107  0.235110147059
 C1 0.388738 0.889139 0.1026  -0.0327023529412
 C1 0.460145 0.84486 0.1219  -0.0327023529412
 C1 0.135085 0.675508 0.12372  -0.0327023529412
 C1 0.1852 0.986282 0.21986  -0.0327023529412
 C1 0.218545 0.89847 0.93795  -0.0327023529412
 C2 0.094769 0.844893 0.96159  0.235110147059
 C1 0.173987 0.89222 0.87480  -0.0327023529412
 C2 0.086745 0.766059 0.20160  0.235110147059
 C1 0.090356 0.63184 0.17512  -0.0327023529412
 C1 0.135782 0.053205 0.24168  -0.0327023529412
 C2 0.093584 0.013291 0.1357  0.235110147059
 C2 0.350421 0.764817 0.14103  0.235110147059
 C1 0.888739 0.610842 0.89739  -0.0327023529412
 C1 0.960138 0.655117 0.87810  -0.0327023529412
 C1 0.635242 0.82451 0.87619  -0.0327023529412
 C1 0.685182 0.513675 0.78013  -0.0327023529412
 C1 0.71853 0.60135 0.06202  -0.0327023529412
 C2 0.594796 0.655055 0.03838  0.235110147059
 C1 0.67397 0.607592 0.12517  -0.0327023529412
 C2 0.586688 0.733924 0.79843  0.235110147059
 C1 0.590522 0.868175 0.82477  -0.0327023529412
 C1 0.63577 0.446761 0.75831  -0.0327023529412
 C2 0.593527 0.486735 0.86423  0.235110147059
 C2 0.850397 0.73511 0.85887  0.235110147059
 C1 0.611244 0.389156 0.39732  -0.0327023529412
 C1 0.539843 0.344879 0.3780  -0.0327023529412
 C1 0.864872 0.1755 0.37626  -0.0327023529412
 C1 0.814772 0.486306 0.28013  -0.0327023529412
 C1 0.781467 0.398652 0.56201  -0.0327023529412
 C2 0.905173 0.344886 0.53839  0.235110147059
 C1 0.826024 0.392398 0.62516  -0.0327023529412
 C2 0.913258 0.26606 0.29841  0.235110147059
 C1 0.9096 0.131831 0.32485  -0.0327023529412
 C1 0.864188 0.553214 0.25831  -0.0327023529412
 C2 0.906428 0.513259 0.36424  0.235110147059
 C2 0.649571 0.264837 0.35892  0.235110147059
 N1 0.819163 0.837973 0.38512  -0.385391727941
 N1 0.632635 0.760799 0.35922  -0.385391727941
 N1 0.65814 0.961187 0.34754  -0.385391727941
 N1 0.668012 0.868386 0.50699  -0.385391727941
 N1 0.595395 0.858253 0.60987  -0.385391727941
 N1 0.559631 0.689753 0.27554  -0.385391727941
 N1 0.577567 0.070061 0.31196  -0.385391727941
 N1 0.935409 0.765876 0.35370  -0.385391727941
 N1 0.680812 0.162011 0.88512  -0.385391727941
 N1 0.867358 0.239163 0.85922  -0.385391727941
 N1 0.84181 0.03877 0.84755  -0.385391727941
 N1 0.831966 0.131616 0.00700  -0.385391727941
 N1 0.904581 0.14176 0.10988  -0.385391727941
 N1 0.940366 0.310216 0.77556  -0.385391727941
 N1 0.922385 0.929907 0.81196  -0.385391727941
 N1 0.564559 0.234113 0.8537  -0.385391727941
 N1 0.180822 0.337997 0.11489  -0.385391727941
 N1 0.367341 0.260793 0.14076  -0.385391727941
 N1 0.341849 0.461195 0.15245  -0.385391727941
 N1 0.33195 0.368431 0.99299  -0.385391727941
 N1 0.404569 0.358305 0.89012  -0.385391727941
 N1 0.440337 0.189745 0.2244  -0.385391727941
 N1 0.422419 0.570056 0.18803  -0.385391727941
 N1 0.064577 0.265901 0.1463  -0.385391727941
 N1 0.319146 0.661997 0.61490  -0.385391727941
 N1 0.132583 0.739165 0.64074  -0.385391727941
 N1 0.158139 0.538771 0.65244  -0.385391727941
 N1 0.168015 0.63155 0.49  -0.385391727941
 N1 0.095399 0.641697 0.39011  -0.385391727941
 N1 0.059583 0.810218 0.72440  -0.385391727941
 N1 0.077567 0.429922 0.68803  -0.385391727941
 N1 0.435397 0.734096 0.6463  -0.385391727941
 N1 0.180809 0.162 0.61486  -0.385391727941
 N1 0.367327 0.239181 0.64077  -0.385391727941
 N1 0.341833 0.038789 0.65244  -0.385391727941
 N1 0.33196 0.131594 0.49299  -0.385391727941
 N1 0.404578 0.141726 0.39012  -0.385391727941
 N1 0.440333 0.310227 0.72444  -0.385391727941
 N1 0.422408 0.929916 0.6880  -0.385391727941
 N1 0.064563 0.234098 0.64629  -0.385391727941
 N1 0.319163 0.837969 0.11486  -0.385391727941
 N1 0.132611 0.760817 0.14076  -0.385391727941
 N1 0.158164 0.961208 0.15243  -0.385391727941
 N1 0.168009 0.868363 0.99298  -0.385391727941
 N1 0.095394 0.85822 0.89010  -0.385391727941
 N1 0.059603 0.689765 0.22442  -0.385391727941
 N1 0.077588 0.07007 0.18802  -0.385391727941
 N1 0.435417 0.765865 0.14628  -0.385391727941
 N1 0.819151 0.661982 0.88509  -0.385391727941
 N1 0.632627 0.739181 0.85923  -0.385391727941
 N1 0.658122 0.538785 0.84753  -0.385391727941
 N1 0.668024 0.631543 0.00699  -0.385391727941
 N1 0.595405 0.641671 0.10986  -0.385391727941
 N1 0.55963 0.810229 0.77555  -0.385391727941
 N1 0.577549 0.429926 0.81195  -0.385391727941
 N1 0.935396 0.734078 0.85366  -0.385391727941
 N1 0.680824 0.337986 0.38509  -0.385391727941
 N1 0.867379 0.260814 0.35924  -0.385391727941
 N1 0.841832 0.46121 0.34754  -0.385391727941
 N1 0.831958 0.368425 0.50699  -0.385391727941
 N1 0.904574 0.358278 0.60987  -0.385391727941
 N1 0.940383 0.189761 0.27558  -0.385391727941
 N1 0.922406 0.570056 0.31195  -0.385391727941
 N1 0.564574 0.265885 0.35367  -0.385391727941
