#======================================================================

# CRYSTAL DATA

#----------------------------------------------------------------------

data_VESTA_phase_1


_pd_phase_name                         MOF
_cell_length_a                         19.84800
_cell_length_b                         19.84000
_cell_length_c                         15.50600
_cell_angle_alpha                      74.22900
_cell_angle_beta                       74.30100
_cell_angle_gamma                      82.63600
_symmetry_space_group_name_H-M         "P 1"
_symmetry_Int_Tables_number            1

loop_
_symmetry_equiv_pos_as_xyz
   "x, y, z"

loop_
   _atom_site_label
   _atom_site_fract_x
   _atom_site_fract_y
   _atom_site_fract_z
 _atom_site_charge
 Al1 0.468355 0.158989 0.12580  1.96644583333
 Al1 0.468359 0.658984 0.12580  1.96644583333
 Al1 0.968358 0.158989 0.12580  1.96644583333
 Al1 0.968362 0.658984 0.12580  1.96644583333
 Al1 0.016889 0.401552 0.16808  1.96644583333
 Al1 0.016892 0.901547 0.16808  1.96644583333
 Al1 0.516891 0.401552 0.16808  1.96644583333
 Al1 0.516895 0.901547 0.16808  1.96644583333
 Al1 0.059339 0.18216 0.41978  1.96644583333
 Al1 0.059343 0.682155 0.41978  1.96644583333
 Al1 0.559342 0.18216 0.41978  1.96644583333
 Al1 0.559346 0.682155 0.41978  1.96644583333
 Al1 0.340836 0.031678 0.37402  1.96644583333
 Al1 0.340839 0.531672 0.37402  1.96644583333
 Al1 0.840839 0.031678 0.37402  1.96644583333
 Al1 0.840842 0.531672 0.37402  1.96644583333
 Al1 0.098637 0.483166 0.33179  1.96644583333
 Al1 0.098641 0.98316 0.33179  1.96644583333
 Al1 0.59864 0.483166 0.33179  1.96644583333
 Al1 0.598644 0.98316 0.33179  1.96644583333
 Al1 0.31773 0.440549 0.08038  1.96644583333
 Al1 0.317734 0.940544 0.08038  1.96644583333
 Al1 0.817733 0.440549 0.08038  1.96644583333
 Al1 0.817737 0.940544 0.08038  1.96644583333
 Al1 0.031676 0.341023 0.87418  1.96644583333
 Al1 0.031679 0.841018 0.87418  1.96644583333
 Al1 0.531679 0.341023 0.87418  1.96644583333
 Al1 0.531682 0.841017 0.87418  1.96644583333
 Al1 0.483137 0.098452 0.83192  1.96644583333
 Al1 0.483141 0.598447 0.83192  1.96644583333
 Al1 0.98314 0.098453 0.83192  1.96644583333
 Al1 0.983144 0.598448 0.83192  1.96644583333
 Al1 0.440682 0.317856 0.58021  1.96644583333
 Al1 0.440685 0.81785 0.58021  1.96644583333
 Al1 0.940685 0.317856 0.58021  1.96644583333
 Al1 0.940688 0.81785 0.58021  1.96644583333
 Al1 0.159186 0.468339 0.62597  1.96644583333
 Al1 0.15919 0.968333 0.62597  1.96644583333
 Al1 0.659189 0.468339 0.62597  1.96644583333
 Al1 0.659193 0.968334 0.62597  1.96644583333
 Al1 0.40139 0.01685 0.66820  1.96644583333
 Al1 0.401394 0.516845 0.66820  1.96644583333
 Al1 0.901393 0.01685 0.66820  1.96644583333
 Al1 0.901397 0.516845 0.66820  1.96644583333
 Al1 0.182297 0.05946 0.91961  1.96644583333
 Al1 0.182301 0.559455 0.91961  1.96644583333
 Al1 0.6823 0.05946 0.91961  1.96644583333
 Al1 0.682304 0.559454 0.91961  1.96644583333
 P1 0.158305 0.46846 0.12595  2.08647916667
 P1 0.158308 0.968455 0.12595  2.08647916667
 P1 0.658308 0.46846 0.12595  2.08647916667
 P1 0.658312 0.968455 0.12595  2.08647916667
 P1 0.438775 0.322668 0.07779  2.08647916667
 P1 0.438778 0.822663 0.07779  2.08647916667
 P1 0.938778 0.322668 0.07779  2.08647916667
 P1 0.938781 0.822663 0.07779  2.08647916667
 P1 0.479283 0.105078 0.33034  2.08647916667
 P1 0.479287 0.605072 0.33034  2.08647916667
 P1 0.979286 0.105078 0.33034  2.08647916667
 P1 0.97929 0.605073 0.33034  2.08647916667
 P1 0.031619 0.341788 0.37403  2.08647916667
 P1 0.031622 0.841783 0.37403  2.08647916667
 P1 0.531621 0.341788 0.37403  2.08647916667
 P1 0.531625 0.841783 0.37403  2.08647916667
 P1 0.177734 0.061379 0.42173  2.08647916667
 P1 0.177737 0.561373 0.42173  2.08647916667
 P1 0.677737 0.061379 0.42173  2.08647916667
 P1 0.67774 0.561373 0.42173  2.08647916667
 P1 0.39483 0.020681 0.16977  2.08647916667
 P1 0.394833 0.520676 0.16977  2.08647916667
 P1 0.894833 0.020681 0.16977  2.08647916667
 P1 0.894836 0.520676 0.16977  2.08647916667
 P1 0.341722 0.031549 0.87404  2.08647916667
 P1 0.341726 0.531544 0.87404  2.08647916667
 P1 0.841725 0.03155 0.87404  2.08647916667
 P1 0.841729 0.531544 0.87404  2.08647916667
 P1 0.061259 0.177342 0.92220  2.08647916667
 P1 0.061262 0.677337 0.92220  2.08647916667
 P1 0.561261 0.177342 0.92220  2.08647916667
 P1 0.561265 0.677337 0.92220  2.08647916667
 P1 0.020739 0.394937 0.66965  2.08647916667
 P1 0.020742 0.894931 0.66965  2.08647916667
 P1 0.520742 0.394937 0.66965  2.08647916667
 P1 0.520745 0.894932 0.66965  2.08647916667
 P1 0.468405 0.158228 0.62597  2.08647916667
 P1 0.468408 0.658223 0.62597  2.08647916667
 P1 0.968408 0.158228 0.62597  2.08647916667
 P1 0.968411 0.658223 0.62597  2.08647916667
 P1 0.32229 0.438642 0.57826  2.08647916667
 P1 0.322294 0.938637 0.57826  2.08647916667
 P1 0.822293 0.438642 0.57826  2.08647916667
 P1 0.822297 0.938637 0.57826  2.08647916667
 P1 0.105197 0.479327 0.83022  2.08647916667
 P1 0.1052 0.979322 0.83022  2.08647916667
 P1 0.6052 0.479327 0.83022  2.08647916667
 P1 0.605203 0.979322 0.83022  2.08647916667
 O1 0.10588 0.419121 0.12130  -1.01323125
 O1 0.105884 0.919115 0.12130  -1.01323125
 O1 0.605883 0.419121 0.12130  -1.01323125
 O1 0.605886 0.919116 0.12130  -1.01323125
 O1 0.228459 0.425606 0.1310  -1.01323125
 O1 0.228463 0.925601 0.13100  -1.01323125
 O1 0.728462 0.425606 0.1310  -1.01323125
 O1 0.728466 0.925601 0.1310  -1.01323125
 O1 0.129971 0.498938 0.21127  -1.01323125
 O1 0.129974 0.998933 0.21127  -1.01323125
 O1 0.629974 0.498939 0.21127  -1.01323125
 O1 0.629978 0.998934 0.21127  -1.01323125
 O1 0.427286 0.243697 0.11335  -1.01323125
 O1 0.42729 0.743692 0.11335  -1.01323125
 O1 0.92729 0.243697 0.11335  -1.01323125
 O1 0.927293 0.743692 0.11335  -1.01323125
 O1 0.00229 0.133837 0.22437  -1.01323125
 O1 0.002294 0.633832 0.22437  -1.01323125
 O1 0.502293 0.133837 0.22437  -1.01323125
 O1 0.502297 0.633832 0.22437  -1.01323125
 O1 0.495919 0.340048 0.11807  -1.01323125
 O1 0.495923 0.840043 0.11807  -1.01323125
 O1 0.995922 0.340047 0.11807  -1.01323125
 O1 0.995926 0.840042 0.11807  -1.01323125
 O1 0.46179 0.343596 0.97121  -1.01323125
 O1 0.461794 0.843591 0.97121  -1.01323125
 O1 0.961793 0.343597 0.97121  -1.01323125
 O1 0.961797 0.843592 0.97121  -1.01323125
 O1 0.494421 0.158164 0.37772  -1.01323125
 O1 0.494424 0.658159 0.37772  -1.01323125
 O1 0.994424 0.158165 0.37772  -1.01323125
 O1 0.994427 0.658159 0.37772  -1.01323125
 O1 0.169246 0.030948 0.04013  -1.01323125
 O1 0.169249 0.530943 0.04013  -1.01323125
 O1 0.669249 0.030948 0.04013  -1.01323125
 O1 0.669252 0.530943 0.04013  -1.01323125
 O1 0.368642 0.362647 0.10996  -1.01323125
 O1 0.368645 0.862642 0.10996  -1.01323125
 O1 0.868644 0.362647 0.10996  -1.01323125
 O1 0.868648 0.862642 0.10996  -1.01323125
 O1 0.01965 0.033801 0.35853  -1.01323125
 O1 0.019654 0.533796 0.35853  -1.01323125
 O1 0.519653 0.033801 0.35853  -1.01323125
 O1 0.519657 0.533796 0.35853  -1.01323125
 O1 0.399906 0.094591 0.36247  -1.01323125
 O1 0.39991 0.594586 0.36247  -1.01323125
 O1 0.899909 0.094591 0.36247  -1.01323125
 O1 0.899913 0.594586 0.36247  -1.01323125
 O1 0.081085 0.394102 0.37865  -1.01323125
 O1 0.081089 0.894096 0.37865  -1.01323125
 O1 0.581088 0.394102 0.37865  -1.01323125
 O1 0.581092 0.894096 0.37865  -1.01323125
 O1 0.074266 0.271499 0.36925  -1.01323125
 O1 0.07427 0.771494 0.36925  -1.01323125
 O1 0.574269 0.271499 0.36925  -1.01323125
 O1 0.574272 0.771494 0.36925  -1.01323125
 O1 0.001223 0.370208 0.28859  -1.01323125
 O1 0.001227 0.870203 0.28859  -1.01323125
 O1 0.501225 0.370208 0.288  -1.01323125
 O1 0.501229 0.870203 0.288  -1.01323125
 O1 0.256488 0.073448 0.38494  -1.01323125
 O1 0.256491 0.573443 0.38494  -1.01323125
 O1 0.756491 0.073448 0.38494  -1.01323125
 O1 0.756494 0.573443 0.38494  -1.01323125
 O1 0.366309 0.497422 0.27577  -1.01323125
 O1 0.366312 0.997417 0.27577  -1.01323125
 O1 0.866312 0.497422 0.27577  -1.01323125
 O1 0.866315 0.997417 0.27577  -1.01323125
 O1 0.160059 0.004054 0.38201  -1.01323125
 O1 0.160062 0.504049 0.38201  -1.01323125
 O1 0.660062 0.004054 0.38201  -1.01323125
 O1 0.660065 0.504049 0.38201  -1.01323125
 O1 0.157969 0.038188 0.5283  -1.01323125
 O1 0.157973 0.538182 0.5283  -1.01323125
 O1 0.657972 0.038188 0.5283  -1.01323125
 O1 0.657976 0.538183 0.5283  -1.01323125
 O1 0.341768 0.005511 0.12236  -1.01323125
 O1 0.341772 0.505505 0.12236  -1.01323125
 O1 0.841771 0.00551 0.12236  -1.01323125
 O1 0.841775 0.505505 0.12236  -1.01323125
 O1 0.469122 0.331031 0.45970  -1.01323125
 O1 0.469126 0.831026 0.45970  -1.01323125
 O1 0.969125 0.331031 0.45970  -1.01323125
 O1 0.969129 0.831026 0.45970  -1.01323125
 O1 0.137172 0.131327 0.39018  -1.01323125
 O1 0.137175 0.631322 0.39018  -1.01323125
 O1 0.637175 0.131327 0.39018  -1.01323125
 O1 0.637178 0.631322 0.39018  -1.01323125
 O1 0.466141 0.480519 0.14138  -1.01323125
 O1 0.466145 0.980514 0.14138  -1.01323125
 O1 0.966144 0.480519 0.14138  -1.01323125
 O1 0.966148 0.980514 0.14138  -1.01323125
 O1 0.405065 0.100174 0.1378  -1.01323125
 O1 0.405069 0.600168 0.1378  -1.01323125
 O1 0.905068 0.100173 0.13785  -1.01323125
 O1 0.905072 0.600168 0.13785  -1.01323125
 O1 0.394145 0.080887 0.87870  -1.01323125
 O1 0.394148 0.580881 0.87870  -1.01323125
 O1 0.894148 0.080887 0.8787  -1.01323125
 O1 0.894151 0.580882 0.8787  -1.01323125
 O1 0.271568 0.074403 0.86898  -1.01323125
 O1 0.271572 0.574398 0.86898  -1.01323125
 O1 0.771571 0.074403 0.86898  -1.01323125
 O1 0.771575 0.574398 0.86898  -1.01323125
 O1 0.370064 0.001075 0.78872  -1.01323125
 O1 0.370068 0.50107 0.78872  -1.01323125
 O1 0.870068 0.001076 0.78872  -1.01323125
 O1 0.870071 0.501071 0.78872  -1.01323125
 O1 0.072741 0.256314 0.88662  -1.01323125
 O1 0.072744 0.756309 0.88662  -1.01323125
 O1 0.572744 0.256314 0.88662  -1.01323125
 O1 0.572748 0.756309 0.88662  -1.01323125
 O1 0.497727 0.366185 0.77563  -1.01323125
 O1 0.497731 0.86618 0.77563  -1.01323125
 O1 0.99773 0.366185 0.77563  -1.01323125
 O1 0.997734 0.866179 0.77563  -1.01323125
 O1 0.00411 0.15995 0.88194  -1.01323125
 O1 0.004114 0.659945 0.88194  -1.01323125
 O1 0.504113 0.159949 0.88194  -1.01323125
 O1 0.504117 0.659944 0.88194  -1.01323125
 O1 0.03825 0.156425 0.02878  -1.01323125
 O1 0.038254 0.656419 0.02878  -1.01323125
 O1 0.538253 0.156426 0.02878  -1.01323125
 O1 0.538257 0.65642 0.02878  -1.01323125
 O1 0.0056 0.341844 0.62228  -1.01323125
 O1 0.005603 0.841838 0.62228  -1.01323125
 O1 0.505603 0.341844 0.62228  -1.01323125
 O1 0.505606 0.841839 0.62228  -1.01323125
 O1 0.330775 0.46906 0.95986  -1.01323125
 O1 0.330778 0.969055 0.95986  -1.01323125
 O1 0.830778 0.46906 0.95986  -1.01323125
 O1 0.830781 0.969055 0.95986  -1.01323125
 O1 0.131393 0.137366 0.8900  -1.01323125
 O1 0.131397 0.637361 0.8900  -1.01323125
 O1 0.631396 0.137366 0.89003  -1.01323125
 O1 0.6314 0.637361 0.89003  -1.01323125
 O1 0.480376 0.466214 0.64145  -1.01323125
 O1 0.480379 0.966208 0.64145  -1.01323125
 O1 0.980378 0.466213 0.64145  -1.01323125
 O1 0.980382 0.966208 0.64145  -1.01323125
 O1 0.100117 0.40542 0.63752  -1.01323125
 O1 0.10012 0.905415 0.63752  -1.01323125
 O1 0.60012 0.40542 0.63752  -1.01323125
 O1 0.600124 0.905415 0.63752  -1.01323125
 O1 0.418939 0.105915 0.62135  -1.01323125
 O1 0.418942 0.605909 0.62135  -1.01323125
 O1 0.918942 0.105915 0.6213  -1.01323125
 O1 0.918945 0.605909 0.6213  -1.01323125
 O1 0.425756 0.228517 0.63075  -1.01323125
 O1 0.425759 0.728512 0.63075  -1.01323125
 O1 0.925759 0.228517 0.63075  -1.01323125
 O1 0.925762 0.728512 0.63075  -1.01323125
 O1 0.498801 0.12981 0.71140  -1.01323125
 O1 0.498805 0.629805 0.71140  -1.01323125
 O1 0.998803 0.12981 0.71140  -1.01323125
 O1 0.998807 0.629805 0.71140  -1.01323125
 O1 0.243536 0.426575 0.6150  -1.01323125
 O1 0.24354 0.92657 0.6150  -1.01323125
 O1 0.743539 0.426575 0.6150  -1.01323125
 O1 0.743543 0.92657 0.6150  -1.01323125
 O1 0.133717 0.002596 0.72422  -1.01323125
 O1 0.133721 0.502591 0.72422  -1.01323125
 O1 0.63372 0.002596 0.72422  -1.01323125
 O1 0.633724 0.502591 0.72422  -1.01323125
 O1 0.339968 0.495968 0.61798  -1.01323125
 O1 0.339972 0.995963 0.61798  -1.01323125
 O1 0.839971 0.495968 0.61798  -1.01323125
 O1 0.839974 0.995963 0.61798  -1.01323125
 O1 0.342051 0.461829 0.47166  -1.01323125
 O1 0.342054 0.961824 0.47166  -1.01323125
 O1 0.842054 0.461829 0.47166  -1.01323125
 O1 0.842057 0.961824 0.47166  -1.01323125
 O1 0.158251 0.494496 0.87764  -1.01323125
 O1 0.158255 0.994491 0.87764  -1.01323125
 O1 0.658254 0.494496 0.87764  -1.01323125
 O1 0.658258 0.994491 0.87764  -1.01323125
 O1 0.030901 0.168984 0.54030  -1.01323125
 O1 0.030904 0.668979 0.54030  -1.01323125
 O1 0.530904 0.168985 0.54030  -1.01323125
 O1 0.530907 0.668979 0.54030  -1.01323125
 O1 0.362853 0.368694 0.60981  -1.01323125
 O1 0.362856 0.868689 0.60981  -1.01323125
 O1 0.862856 0.368694 0.60981  -1.01323125
 O1 0.862859 0.868689 0.60981  -1.01323125
 O1 0.033881 0.019481 0.85861  -1.01323125
 O1 0.033884 0.519476 0.85861  -1.01323125
 O1 0.533884 0.019481 0.85861  -1.01323125
 O1 0.533887 0.519476 0.85861  -1.01323125
 O1 0.094973 0.399833 0.86213  -1.01323125
 O1 0.094976 0.899827 0.86213  -1.01323125
 O1 0.594976 0.399833 0.86213  -1.01323125
 O1 0.594979 0.899827 0.86213  -1.01323125
