#======================================================================

# CRYSTAL DATA

#----------------------------------------------------------------------

data_VESTA_phase_1


_pd_phase_name                         MOF
_cell_length_a                         12.63600
_cell_length_b                         12.63800
_cell_length_c                         23.81000
_cell_angle_alpha                      81.89500
_cell_angle_beta                       81.87800
_cell_angle_gamma                      65.76500
_symmetry_space_group_name_H-M         "P 1"
_symmetry_Int_Tables_number            1

loop_
_symmetry_equiv_pos_as_xyz
   "x, y, z"

loop_
   _atom_site_label
   _atom_site_fract_x
   _atom_site_fract_y
   _atom_site_fract_z
 _atom_site_charge
 Cd1 0.362915 0.221545 0.85087  0.900231804511
 Cd1 0.778056 0.635578 0.65014  0.900231804511
 Cd1 0.637065 0.778411 0.14910  0.900231804511
 Cd1 0.2219 0.364411 0.34983  0.900231804511
 H1 0.511614 0.451054 0.71056  0.100603183822
 H1 0.512513 0.339519 0.67288  0.100603183822
 H1 0.392043 0.647467 0.68510  0.100603183822
 H1 0.237321 0.793969 0.62729  0.100603183822
 H1 0.120958 0.730447 0.57372  0.100603183822
 H1 0.310778 0.375265 0.63724  0.100603183822
 H1 0.167541 0.414983 0.57538  0.100603183822
 H1 0.140584 0.540037 0.52509  0.100603183822
 H1 0.191661 0.4963 0.86037  0.100603183822
 H1 0.088121 0.640588 0.93276  0.100603183822
 H1 0.186935 0.352703 0.06307  0.100603183822
 H1 0.281195 0.219811 0.98480  0.100603183822
 H1 0.0322 0.553295 0.08491  0.100603183822
 H1 0.009076 0.673191 0.03303  0.100603183822
 H1 0.12529 0.667797 0.11221  0.100603183822
 H1 0.236078 0.53634 0.09075  0.100603183822
 H1 0.154805 0.771465 0.01732  0.100603183822
 H1 0.263117 0.640143 0.99385  0.100603183822
 H1 0.214064 0.894324 0.06409  0.100603183822
 H1 0.371064 0.919288 0.10770  0.100603183822
 H1 0.586163 0.57023 0.10192  0.100603183822
 H1 0.442008 0.530645 0.05722  0.100603183822
 H1 0.169157 0.368329 0.75833  0.100603183822
 H1 0.983844 0.382605 0.72718  0.100603183822
 H1 0.006565 0.087229 0.84892  0.100603183822
 H1 0.190621 0.087254 0.87576  0.100603183822
 H1 0.798168 0.265356 0.80507  0.100603183822
 H1 0.833743 0.311177 0.73447  0.100603183822
 H1 0.899638 0.055959 0.78571  0.100603183822
 H1 0.546228 0.4891 0.79017  0.100603183822
 H1 0.657948 0.48738 0.82800  0.100603183822
 H1 0.350181 0.609004 0.81548  0.100603183822
 H1 0.203708 0.76375 0.87336  0.100603183822
 H1 0.267495 0.879448 0.92723  0.100603183822
 H1 0.622801 0.688823 0.86398  0.100603183822
 H1 0.583014 0.832332 0.92584  0.100603183822
 H1 0.457748 0.859396 0.97601  0.100603183822
 H1 0.503814 0.807697 0.64053  0.100603183822
 H1 0.359479 0.911844 0.56825  0.100603183822
 H1 0.647205 0.812449 0.43780  0.100603183822
 H1 0.78015 0.717474 0.5159  0.100603183822
 H1 0.446397 0.968132 0.4162  0.100603183822
 H1 0.326589 0.990602 0.46815  0.100603183822
 H1 0.332152 0.87513 0.38859  0.100603183822
 H1 0.463714 0.764291 0.40988  0.100603183822
 H1 0.228603 0.844725 0.48344  0.100603183822
 H1 0.360036 0.736177 0.50664  0.100603183822
 H1 0.105526 0.786039 0.43655  0.100603183822
 H1 0.080556 0.629974 0.39214  0.100603183822
 H1 0.429923 0.415136 0.39  0.100603183822
 H1 0.469592 0.558442 0.44234  0.100603183822
 H1 0.632006 0.82935 0.74280  0.100603183822
 H1 0.61725 0.015367 0.77331  0.100603183822
 H1 0.911265 0.993035 0.65060  0.100603183822
 H1 0.911749 0.808215 0.62442  0.100603183822
 H1 0.736029 0.200444 0.69410  0.100603183822
 H1 0.686992 0.167163 0.76451  0.100603183822
 H1 0.944244 0.096751 0.71565  0.100603183822
 H1 0.488369 0.548899 0.28941  0.100603183822
 H1 0.487466 0.660442 0.32708  0.100603183822
 H1 0.607943 0.352487 0.31487  0.100603183822
 H1 0.762665 0.205998 0.37269  0.100603183822
 H1 0.879024 0.269534 0.42625  0.100603183822
 H1 0.689187 0.624709 0.36272  0.100603183822
 H1 0.832376 0.585013 0.42461  0.100603183822
 H1 0.859402 0.459918 0.47488  0.100603183822
 H1 0.808308 0.503659 0.1395  0.100603183822
 H1 0.911847 0.359376 0.06719  0.100603183822
 H1 0.813032 0.647269 0.93689  0.100603183822
 H1 0.718773 0.780156 0.0151  0.100603183822
 H1 0.967761 0.446681 0.91504  0.100603183822
 H1 0.990895 0.326781 0.9669  0.100603183822
 H1 0.874672 0.332175 0.88775  0.100603183822
 H1 0.763884 0.463629 0.90921  0.100603183822
 H1 0.845172 0.228501 0.98264  0.100603183822
 H1 0.736858 0.359819 0.  0.100603183822
 H1 0.785913 0.10564 0.93587  0.100603183822
 H1 0.62891 0.080673 0.89226  0.100603183822
 H1 0.413805 0.429728 0.89805  0.100603183822
 H1 0.557961 0.469316 0.94274  0.100603183822
 H1 0.830847 0.631605 0.24162  0.100603183822
 H1 0.016144 0.617356 0.2727  0.100603183822
 H1 0.993386 0.912759 0.15105  0.100603183822
 H1 0.809345 0.912712 0.12421  0.100603183822
 H1 0.201806 0.734611 0.19490  0.100603183822
 H1 0.166216 0.688808 0.26550  0.100603183822
 H1 0.100346 0.944015 0.21425  0.100603183822
 H1 0.453752 0.510842 0.209  0.100603183822
 H1 0.342034 0.512576 0.17197  0.100603183822
 H1 0.649798 0.390952 0.18448  0.100603183822
 H1 0.796269 0.236208 0.12659  0.100603183822
 H1 0.732481 0.120509 0.07273  0.100603183822
 H1 0.377177 0.31113 0.13599  0.100603183822
 H1 0.416962 0.167622 0.07412  0.100603183822
 H1 0.542225 0.14056 0.02395  0.100603183822
 H1 0.496156 0.192264 0.35943  0.100603183822
 H1 0.6405 0.088111 0.43171  0.100603183822
 H1 0.352789 0.187502 0.56217  0.100603183822
 H1 0.219835 0.282484 0.4840  0.100603183822
 H1 0.553612 0.03181 0.58373  0.100603183822
 H1 0.673408 0.009356 0.53180  0.100603183822
 H1 0.667861 0.12481 0.61137  0.100603183822
 H1 0.536287 0.235648 0.59009  0.100603183822
 H1 0.771379 0.155251 0.51651  0.100603183822
 H1 0.639933 0.263797 0.4933  0.100603183822
 H1 0.894455 0.213923 0.5634  0.100603183822
 H1 0.919422 0.369989 0.60783  0.100603183822
 H1 0.570057 0.58483 0.60296  0.100603183822
 H1 0.530393 0.441525 0.55761  0.100603183822
 H1 0.367958 0.170627 0.25716  0.100603183822
 H1 0.38272 0.984604 0.2266  0.100603183822
 H1 0.088724 0.006923 0.3493  0.100603183822
 H1 0.088231 0.191751 0.37555  0.100603183822
 H1 0.26393 0.799525 0.30587  0.100603183822
 H1 0.312982 0.832801 0.23546  0.100603183822
 H1 0.055722 0.90324 0.28431  0.100603183822
 C1 0.410605 0.357797 0.75367  0.717741804511
 C2 0.456368 0.411 0.69869  -0.218956657027
 C3 0.362023 0.501526 0.66472  0.155003804511
 C4 0.340283 0.620007 0.66199  -0.207568195489
 C4 0.253763 0.701756 0.62928  -0.207568195489
 C4 0.188416 0.6667 0.59928  -0.207568195489
 C3 0.208088 0.54847 0.60189  0.155003804511
 C4 0.294934 0.467523 0.63473  -0.207568195489
 C2 0.135209 0.510446 0.57065  -0.218956657027
 C1 0.007005 0.561279 0.5946  0.717741804511
 C5 0.186129 0.468643 0.90582  0.183115137845
 C4 0.130449 0.547998 0.94644  -0.207568195489
 C3 0.129692 0.508919 0.004  0.155003804511
 C4 0.185106 0.388498 0.01856  -0.207568195489
 C5 0.237902 0.314087 0.97569  0.183115137845
 C2 0.076301 0.59154 0.05011  -0.218956657027
 C2 0.167593 0.618546 0.07497  -0.218956657027
 C2 0.223115 0.687875 0.03185  -0.218956657027
 C3 0.314411 0.709839 0.05666  0.155003804511
 C4 0.295564 0.819731 0.07180  -0.207568195489
 C5 0.382077 0.83469 0.09600  0.183115137845
 C5 0.503268 0.640422 0.09215  0.183115137845
 C4 0.421832 0.618831 0.06735  -0.207568195489
 C5 0.130238 0.307313 0.77734  0.183115137845
 C4 0.026363 0.314594 0.76002  -0.207568195489
 C3 0.978037 0.235297 0.78529  0.155003804511
 C4 0.039111 0.151639 0.82749  -0.207568195489
 C5 0.14197 0.150277 0.84270  0.183115137845
 C2 0.864981 0.240505 0.76855  -0.218956657027
 C1 0.640343 0.589354 0.74727  0.717741804511
 C2 0.586662 0.543892 0.80217  -0.218956657027
 C3 0.496286 0.638344 0.83615  0.155003804511
 C4 0.377708 0.660467 0.83875  -0.207568195489
 C4 0.296 0.747003 0.87148  -0.207568195489
 C4 0.331195 0.811979 0.90164  -0.207568195489
 C3 0.449519 0.791954 0.89915  0.155003804511
 C4 0.530456 0.705018 0.86634  -0.207568195489
 C2 0.487527 0.864709 0.93048  -0.218956657027
 C1 0.43674 0.992878 0.90649  0.717741804511
 C5 0.531423 0.813214 0.59507  0.183115137845
 C4 0.452041 0.869247 0.55451  -0.207568195489
 C3 0.491045 0.869972 0.49646  0.155003804511
 C4 0.611456 0.814261 0.4823  -0.207568195489
 C5 0.685891 0.761063 0.52512  0.183115137845
 C2 0.408311 0.923653 0.45091  -0.218956657027
 C2 0.381445 0.83258 0.42578  -0.218956657027
 C2 0.312203 0.776628 0.46871  -0.218956657027
 C3 0.290204 0.685771 0.44353  0.155003804511
 C4 0.180185 0.70478 0.42848  -0.207568195489
 C5 0.165219 0.618775 0.40385  0.183115137845
 C5 0.359685 0.497757 0.40714  0.183115137845
 C4 0.381307 0.578709 0.43232  -0.207568195489
 C5 0.692675 0.868467 0.72346  0.183115137845
 C4 0.685144 0.972717 0.7404  -0.207568195489
 C3 0.763952 0.021286 0.71470  0.155003804511
 C4 0.847314 0.960186 0.67240  -0.207568195489
 C5 0.84896 0.856956 0.6575  0.183115137845
 C2 0.758824 0.13456 0.73107  -0.218956657027
 C1 0.589382 0.642148 0.246  0.717741804511
 C2 0.543613 0.588954 0.30128  -0.218956657027
 C3 0.637959 0.498434 0.33524  0.155003804511
 C4 0.659698 0.379954 0.33798  -0.207568195489
 C4 0.746225 0.298211 0.37069  -0.207568195489
 C4 0.811563 0.333277 0.40069  -0.207568195489
 C3 0.791886 0.451509 0.39807  0.155003804511
 C4 0.705036 0.53245 0.36524  -0.207568195489
 C2 0.864747 0.489547 0.42932  -0.218956657027
 C1 0.992947 0.438776 0.40532  0.717741804511
 C5 0.813841 0.531319 0.09413  0.183115137845
 C4 0.869521 0.451966 0.05352  -0.207568195489
 C3 0.870276 0.491049 0.99546  0.155003804511
 C4 0.814863 0.611471 0.981  -0.207568195489
 C5 0.762067 0.685879 0.02427  0.183115137845
 C2 0.923666 0.408432 0.94985  -0.218956657027
 C2 0.832372 0.381423 0.92499  -0.218956657027
 C2 0.776859 0.31209 0.96811  -0.218956657027
 C3 0.685562 0.290123 0.94330  0.155003804511
 C4 0.704411 0.180231 0.92816  -0.207568195489
 C5 0.617896 0.16527 0.90397  0.183115137845
 C5 0.496702 0.359537 0.90782  0.183115137845
 C4 0.578139 0.381129 0.93261  -0.207568195489
 C5 0.869755 0.692632 0.2226  0.183115137845
 C4 0.973622 0.685365 0.23994  -0.207568195489
 C3 0.021934 0.764677 0.21467  0.155003804511
 C4 0.960854 0.848337 0.17248  -0.207568195489
 C5 0.858003 0.849685 0.15727  0.183115137845
 C2 0.134986 0.759473 0.2314  -0.218956657027
 C1 0.359629 0.41059 0.25269  0.717741804511
 C2 0.413316 0.456055 0.197  -0.218956657027
 C3 0.503692 0.361609 0.16381  0.155003804511
 C4 0.62227 0.339489 0.16121  -0.207568195489
 C4 0.703977 0.252955 0.12848  -0.207568195489
 C4 0.668781 0.187978 0.09832  -0.207568195489
 C3 0.550458 0.208002 0.10081  0.155003804511
 C4 0.469522 0.294936 0.13362  -0.207568195489
 C2 0.51245 0.135245 0.06948  -0.218956657027
 C1 0.563237 0.007078 0.09348  0.717741804511
 C5 0.468551 0.186743 0.40489  0.183115137845
 C4 0.547938 0.13071 0.44545  -0.207568195489
 C3 0.508944 0.129983 0.50350  0.155003804511
 C4 0.388533 0.185693 0.51765  -0.207568195489
 C5 0.314092 0.238891 0.47485  0.183115137845
 C2 0.591687 0.076298 0.54904  -0.218956657027
 C2 0.618555 0.167368 0.57418  -0.218956657027
 C2 0.68778 0.223339 0.53125  -0.218956657027
 C3 0.709778 0.314192 0.55643  0.155003804511
 C4 0.819796 0.295183 0.57149  -0.207568195489
 C5 0.83476 0.381191 0.59612  0.183115137845
 C5 0.640297 0.50221 0.59282  0.183115137845
 C4 0.618677 0.421256 0.56764  -0.207568195489
 C5 0.307293 0.131507 0.27650  0.183115137845
 C4 0.314827 0.027254 0.25953  -0.207568195489
 C3 0.236025 0.978681 0.28527  0.155003804511
 C4 0.152668 0.039777 0.32758  -0.207568195489
 C5 0.151018 0.143012 0.34242  0.183115137845
 C2 0.241147 0.86541 0.26890  -0.218956657027
 C2 0.873891 0.124935 0.75031  -0.218956657027
 C2 0.126081 0.875045 0.24966  -0.218956657027
 N1 0.239372 0.353147 0.91999  -0.352251528822
 N1 0.485022 0.746591 0.10620  -0.352251528822
 N1 0.187916 0.226893 0.81815  -0.352251528822
 N1 0.646882 0.759561 0.58084  -0.352251528822
 N1 0.253406 0.516163 0.3931  -0.352251528822
 N1 0.772855 0.810714 0.68258  -0.352251528822
 N1 0.760597 0.646816 0.07997  -0.352251528822
 N1 0.514951 0.253369 0.89376  -0.352251528822
 N1 0.812069 0.773056 0.18181  -0.352251528822
 N1 0.353094 0.240402 0.41913  -0.352251528822
 N1 0.746573 0.483802 0.60682  -0.352251528822
 N1 0.227114 0.189261 0.31739  -0.352251528822
 O1 0.449018 0.246303 0.7602  -0.642798195489
 O2 0.340505 0.423992 0.78969  -0.642833195489
 O1 0.977136 0.506653 0.63916  -0.642798195489
 O2 0.937299 0.655331 0.57054  -0.642833195489
 O1 0.751893 0.550675 0.74083  -0.642798195489
 O2 0.574506 0.659405 0.71114  -0.642833195489
 O1 0.491258 0.022633 0.86189  -0.642798195489
 O2 0.342754 0.06261 0.93065  -0.642833195489
 O1 0.550976 0.753642 0.23970  -0.642798195489
 O2 0.659482 0.575949 0.21027  -0.642833195489
 O1 0.022802 0.493458 0.36082  -0.642798195489
 O2 0.062668 0.344698 0.42940  -0.642833195489
 O1 0.248077 0.44929 0.25914  -0.642798195489
 O2 0.425464 0.340524 0.28882  -0.642833195489
 O1 0.508723 0.977332 0.13808  -0.642798195489
 O2 0.657218 0.937337 0.06931  -0.642833195489
