#======================================================================

# CRYSTAL DATA

#----------------------------------------------------------------------

data_VESTA_phase_1


_pd_phase_name                         MOF
_cell_length_a                         13.44900
_cell_length_b                         13.57100
_cell_length_c                         13.96200
_cell_angle_alpha                      77.61500
_cell_angle_beta                       65.01100
_cell_angle_gamma                      63.88100
_symmetry_space_group_name_H-M         "P 1"
_symmetry_Int_Tables_number            1

loop_
_symmetry_equiv_pos_as_xyz
   "x, y, z"

loop_
   _atom_site_label
   _atom_site_fract_x
   _atom_site_fract_y
   _atom_site_fract_z
 _atom_site_charge
 La1 0.480507 0.079068 0.33808  1.67322546296
 La1 0.519513 0.920876 0.66191  1.67322546296
 H1 0.148328 0.476164 0.5641  0.096366462963
 H1 0.33831 0.320527 0.4838  0.096366462963
 H1 0.645664 0.180277 0.10530  0.096366462963
 H1 0.842068 0.171109 0.98317  0.096366462963
 H1 0.585202 0.66089 0.97683  0.096366462963
 H1 0.57812 0.947437 0.10025  0.096366462963
 H1 0.990648 0.84371 0.11448  0.096366462963
 H1 0.277592 0.975529 0.56002  0.096366462963
 H1 0.524385 0.634888 0.33540  0.096366462963
 H1 0.784905 0.869832 0.23507  0.096366462963
 H1 0.488445 0.806211 0.40251  0.096366462963
 H1 0.640236 0.478903 0.25874  0.096366462963
 H1 0.624625 0.779756 0.01906  0.096366462963
 H1 0.087824 0.954559 0.62908  0.096366462963
 H1 0.68859 0.311464 0.17814  0.096366462963
 H1 0.011511 0.404432 0.36846  0.096366462963
 H1 0.64089 0.484345 0.90656  0.096366462963
 H1 0.208941 0.255035 0.2946  0.096366462963
 H1 0.267138 0.066098 0.26044  0.096366462963
 H1 0.074439 0.05002 0.31651  0.096366462963
 H1 0.851481 0.52333 0.43640  0.096366462963
 H1 0.661539 0.679089 0.5166  0.096366462963
 H1 0.354382 0.81966 0.89471  0.096366462963
 H1 0.157979 0.828829 0.01684  0.096366462963
 H1 0.414868 0.339045 0.02310  0.096366462963
 H1 0.421895 0.052521 0.89971  0.096366462963
 H1 0.009399 0.156245 0.88557  0.096366462963
 H1 0.722794 0.023776 0.43973  0.096366462963
 H1 0.475565 0.365094 0.66456  0.096366462963
 H1 0.215136 0.130119 0.7649  0.096366462963
 H1 0.511519 0.193762 0.59745  0.096366462963
 H1 0.359695 0.521082 0.74126  0.096366462963
 H1 0.375407 0.220197 0.98090  0.096366462963
 H1 0.912636 0.044614 0.37062  0.096366462963
 H1 0.311333 0.68851 0.8218  0.096366462963
 H1 0.988884 0.596219 0.63088  0.096366462963
 H1 0.359167 0.515579 0.09340  0.096366462963
 H1 0.791394 0.745482 0.70478  0.096366462963
 H1 0.732474 0.93465 0.73965  0.096366462963
 H1 0.92506 0.95095 0.68362  0.096366462963
 C1 0.155311 0.429325 0.50574  -0.208219537037
 C2 0.580962 0.689578 0.16983  0.095793462963
 C2 0.938713 0.005235 0.03611  0.095793462963
 C2 0.058722 0.454791 0.47612  0.095793462963
 C3 0.262803 0.341876 0.46121  0.199801962963
 C3 0.724242 0.106732 0.10586  0.199801962963
 C2 0.609104 0.586708 0.12494  0.095793462963
 C1 0.837115 0.100048 0.0357  -0.208219537037
 C1 0.609553 0.585529 0.02430  -0.208219537037
 C3 0.569753 0.875226 0.14949  0.199801962963
 C1 0.917682 0.920547 0.10897  -0.208219537037
 C3 0.229392 0.992925 0.5083  0.199801962963
 C1 0.540424 0.700788 0.27927  -0.208219537037
 C3 0.801866 0.93404 0.17674  0.199801962963
 C2 0.05879 0.00386 0.48042  0.095793462963
 C3 0.518334 0.797759 0.31771  0.199801962963
 C1 0.638353 0.485245 0.18034  -0.208219537037
 C1 0.594985 0.780745 0.10464  -0.208219537037
 C1 0.121398 0.981163 0.54670  -0.208219537037
 C3 0.667711 0.389905 0.13404  0.199801962963
 C1 0.079942 0.389868 0.39809  -0.208219537037
 C3 0.640633 0.485747 0.98462  0.199801962963
 C3 0.190415 0.304545 0.35682  0.199801962963
 C3 0.222959 0.042873 0.3421  0.199801962963
 C1 0.114489 0.033502 0.37464  -0.208219537037
 C1 0.844634 0.570451 0.49453  -0.208219537037
 C2 0.419039 0.310386 0.83013  0.095793462963
 C2 0.061334 0.994712 0.96392  0.095793462963
 C2 0.941371 0.545276 0.52384  0.095793462963
 C3 0.737153 0.657928 0.53902  0.199801962963
 C3 0.275804 0.89321 0.89416  0.199801962963
 C2 0.390878 0.413255 0.87503  0.095793462963
 C1 0.162932 0.899894 0.96426  -0.208219537037
 C1 0.390479 0.414414 0.97565  -0.208219537037
 C3 0.430247 0.124738 0.85047  0.199801962963
 C1 0.082364 0.079405 0.8910  -0.208219537037
 C3 0.770821 0.006711 0.49150  0.199801962963
 C1 0.459539 0.299187 0.72069  -0.208219537037
 C3 0.198178 0.06591 0.82329  0.199801962963
 C2 0.941187 0.996212 0.51951  0.095793462963
 C3 0.48163 0.202216 0.68225  0.199801962963
 C1 0.361601 0.514727 0.81965  -0.208219537037
 C1 0.405022 0.219216 0.89532  -0.208219537037
 C1 0.878831 0.018442 0.45311  -0.208219537037
 C3 0.33223 0.610061 0.86597  0.199801962963
 C1 0.920305 0.610495 0.60155  -0.208219537037
 C3 0.359383 0.514191 0.01535  0.199801962963
 C3 0.809808 0.695777 0.6428  0.199801962963
 C3 0.776807 0.957589 0.65785  0.199801962963
 C1 0.885244 0.967025 0.62539  -0.208219537037
 N1 0.704999 0.025938 0.17703  -0.427172037037
 N1 0.532583 0.885051 0.25450  -0.427172037037
 N1 0.28117 0.278097 0.38845  -0.427172037037
 N1 0.279867 0.025806 0.40785  -0.427172037037
 N2 0.670655 0.387946 0.03680  -0.428294537037
 N1 0.295045 0.974006 0.82299  -0.427172037037
 N1 0.467399 0.114918 0.74546  -0.427172037037
 N1 0.718913 0.721954 0.61150  -0.427172037037
 N1 0.720121 0.974241 0.59208  -0.427172037037
 N2 0.329359 0.611999 0.9631  -0.428294537037
 Cl1 0.631302 0.898354 0.43045  -0.602564537037
 Cl2 0.428522 0.155585 0.15617  -0.627899537037
 Cl2 0.576932 0.210422 0.36170  -0.627899537037
 Cl1 0.368622 0.101465 0.56955  -0.602564537037
 Cl2 0.571609 0.844388 0.84375  -0.627899537037
 Cl2 0.423106 0.789426 0.63841  -0.627899537037
