#======================================================================

# CRYSTAL DATA

#----------------------------------------------------------------------

data_VESTA_phase_1


_pd_phase_name                         MOF
_cell_length_a                         13.06300
_cell_length_b                         13.03600
_cell_length_c                         17.83600
_cell_angle_alpha                      98.26700
_cell_angle_beta                       98.31800
_cell_angle_gamma                      118.29900
_symmetry_space_group_name_H-M         "P 1"
_symmetry_Int_Tables_number            1

loop_
_symmetry_equiv_pos_as_xyz
   "x, y, z"

loop_
   _atom_site_label
   _atom_site_fract_x
   _atom_site_fract_y
   _atom_site_fract_z
 _atom_site_charge
 Zn1 0.193505 0.333054 0.95888  0.895435346535
 Zn1 0.666896 0.805891 0.54095  0.895435346535
 Zn1 0.80648 0.666966 0.04114  0.895435346535
 Zn1 0.333094 0.194132 0.45908  0.895435346535
 Zn2 0.739112 0.260513 0.24994  0.930985346535
 Zn2 0.260876 0.739511 0.75009  0.930985346535
 B1 0.716824 0.022823 0.95246  0.488315346535
 B1 0.977319 0.28318 0.54731  0.488315346535
 B1 0.283162 0.977198 0.04757  0.488315346535
 B1 0.02267 0.716843 0.45271  0.488315346535
 H1 0.783743 0.953132 0.81245  0.0926201902847
 H1 0.019209 0.113393 0.81170  0.0926201902847
 H1 0.956075 0.237503 0.02089  0.0926201902847
 H1 0.577081 0.689325 0.06871  0.0926201902847
 H1 0.541709 0.870899 0.030  0.0926201902847
 H1 0.846117 0.892502 0.95981  0.0926201902847
 H1 0.760213 0.058678 0.12133  0.0926201902847
 H1 0.755573 0.377231 0.10553  0.0926201902847
 H1 0.706738 0.244409 0.95749  0.0926201902847
 H1 0.671927 0.134964 0.83035  0.0926201902847
 H1 0.45894 0.988694 0.71904  0.0926201902847
 H1 0.490373 0.797155 0.88446  0.0926201902847
 H1 0.185255 0.453355 0.26181  0.0926201902847
 H1 0.394901 0.658066 0.11767  0.0926201902847
 H1 0.2724 0.356578 0.67133  0.0926201902847
 H1 0.496941 0.587655 0.89475  0.0926201902847
 H1 0.046589 0.215912 0.6874  0.0926201902847
 H1 0.885873 0.980312 0.68837  0.0926201902847
 H1 0.762971 0.043646 0.4788  0.0926201902847
 H1 0.310024 0.423491 0.43103  0.0926201902847
 H1 0.128409 0.458406 0.46936  0.0926201902847
 H1 0.107861 0.154028 0.54025  0.0926201902847
 H1 0.940947 0.239275 0.37837  0.0926201902847
 H1 0.623161 0.243921 0.39440  0.0926201902847
 H1 0.756424 0.293598 0.54244  0.0926201902847
 H1 0.865557 0.3283 0.66941  0.0926201902847
 H1 0.012066 0.54125 0.78098  0.0926201902847
 H1 0.202848 0.509688 0.61545  0.0926201902847
 H1 0.54741 0.813785 0.23783  0.0926201902847
 H1 0.341503 0.60527 0.38196  0.0926201902847
 H1 0.643011 0.726731 0.82853  0.0926201902847
 H1 0.411743 0.502481 0.60512  0.0926201902847
 H1 0.216248 0.04688 0.18758  0.0926201902847
 H1 0.980782 0.886618 0.18833  0.0926201902847
 H1 0.043908 0.762528 0.97913  0.0926201902847
 H1 0.422907 0.3107 0.9313  0.0926201902847
 H1 0.458278 0.129125 0.9699  0.0926201902847
 H1 0.153868 0.107518 0.04021  0.0926201902847
 H1 0.239778 0.941348 0.87870  0.0926201902847
 H1 0.244407 0.62279 0.89449  0.0926201902847
 H1 0.293241 0.755607 0.04253  0.0926201902847
 H1 0.328068 0.865049 0.16967  0.0926201902847
 H1 0.541049 0.011285 0.28098  0.0926201902847
 H1 0.509609 0.202869 0.11558  0.0926201902847
 H1 0.81472 0.546683 0.73822  0.0926201902847
 H1 0.605099 0.341945 0.88235  0.0926201902847
 H1 0.727592 0.643443 0.32869  0.0926201902847
 H1 0.503043 0.412367 0.10528  0.0926201902847
 H1 0.953391 0.784117 0.31258  0.0926201902847
 H1 0.114106 0.019719 0.31166  0.0926201902847
 H1 0.237027 0.956374 0.52122  0.0926201902847
 H1 0.689972 0.576535 0.56900  0.0926201902847
 H1 0.871583 0.541619 0.53067  0.0926201902847
 H1 0.892126 0.845994 0.4597  0.0926201902847
 H1 0.059045 0.760752 0.62165  0.0926201902847
 H1 0.376827 0.756098 0.60562  0.0926201902847
 H1 0.243562 0.706419 0.4575  0.0926201902847
 H1 0.134428 0.671729 0.33061  0.0926201902847
 H1 0.987929 0.458778 0.21904  0.0926201902847
 H1 0.797143 0.490333 0.38458  0.0926201902847
 H1 0.452601 0.186217 0.76219  0.0926201902847
 H1 0.658482 0.394758 0.61807  0.0926201902847
 H1 0.356975 0.273294 0.17150  0.0926201902847
 H1 0.588253 0.497543 0.39491  0.0926201902847
 C1 0.852486 0.034695 0.85519  -0.0109662159653
 C1 0.968522 0.112587 0.8548  -0.0109662159653
 C2 0.938239 0.18123 0.96380  0.233640346535
 C1 0.6277 0.758878 0.04037  -0.0109662159653
 C1 0.609642 0.84827 0.02142  -0.0109662159653
 C2 0.768623 0.861345 0.98449  0.233640346535
 C2 0.752356 0.127403 0.09779  0.233640346535
 C1 0.749554 0.290965 0.0874  -0.0109662159653
 C1 0.723328 0.224363 0.01325  -0.0109662159653
 C1 0.601903 0.044106 0.82604  -0.0109662159653
 C1 0.496996 0.970287 0.77010  -0.0109662159653
 C2 0.509759 0.868714 0.85489  0.233640346535
 C3 0.193078 0.450808 0.1115  0.656210346535
 C4 0.26376 0.533901 0.25734  -0.0695209034653
 C5 0.279892 0.548395 0.18280  -0.107674653465
 C4 0.382035 0.650137 0.1760  -0.0695209034653
 C3 0.2805 0.386551 0.82528  0.656210346535
 C5 0.372657 0.466585 0.78676  -0.107674653465
 C4 0.351832 0.440121 0.70518  -0.0695209034653
 C4 0.478987 0.569648 0.8313  -0.0695209034653
 C1 0.96508 0.147168 0.64470  -0.0109662159653
 C1 0.886978 0.031043 0.64517  -0.0109662159653
 C2 0.818939 0.061466 0.53600  0.233640346535
 C1 0.240671 0.372725 0.45939  -0.0109662159653
 C1 0.151266 0.390552 0.47818  -0.0109662159653
 C2 0.138729 0.231579 0.51545  0.233640346535
 C2 0.872484 0.247257 0.40197  0.233640346535
 C1 0.709326 0.250065 0.41248  -0.0109662159653
 C1 0.77614 0.276701 0.48661  -0.0109662159653
 C1 0.95632 0.398313 0.67378  -0.0109662159653
 C1 0.030295 0.503192 0.72984  -0.0109662159653
 C2 0.131479 0.490354 0.64501  0.233640346535
 C3 0.54966 0.806211 0.38799  0.656210346535
 C4 0.466504 0.735682 0.24228  -0.0695209034653
 C5 0.451865 0.719672 0.31682  -0.107674653465
 C4 0.349599 0.618062 0.32361  -0.0695209034653
 C3 0.613144 0.718752 0.6745  0.656210346535
 C5 0.532955 0.626633 0.71310  -0.107674653465
 C4 0.559394 0.647423 0.79468  -0.0695209034653
 C4 0.429739 0.520418 0.66855  -0.0695209034653
 C1 0.147504 0.96532 0.14484  -0.0109662159653
 C1 0.031468 0.887427 0.1452  -0.0109662159653
 C2 0.061746 0.818793 0.03623  0.233640346535
 C1 0.372288 0.241145 0.95966  -0.0109662159653
 C1 0.390345 0.151754 0.97861  -0.0109662159653
 C2 0.231364 0.138677 0.01554  0.233640346535
 C2 0.247631 0.872622 0.90223  0.233640346535
 C1 0.250427 0.709056 0.91261  -0.0109662159653
 C1 0.276653 0.775656 0.98677  -0.0109662159653
 C1 0.39809 0.955909 0.1739  -0.0109662159653
 C1 0.502997 0.029727 0.22992  -0.0109662159653
 C2 0.490225 0.131307 0.14514  0.233640346535
 C3 0.806901 0.549225 0.88845  0.656210346535
 C4 0.736218 0.466135 0.74268  -0.0695209034653
 C5 0.7201 0.451628 0.81722  -0.107674653465
 C4 0.617958 0.349884 0.82401  -0.0695209034653
 C3 0.719493 0.613463 0.1747  0.656210346535
 C5 0.627326 0.533441 0.21326  -0.107674653465
 C4 0.648163 0.559897 0.29485  -0.0695209034653
 C4 0.521001 0.430371 0.16871  -0.0695209034653
 C1 0.034903 0.85286 0.35533  -0.0109662159653
 C1 0.113005 0.968985 0.35486  -0.0109662159653
 C2 0.181053 0.938557 0.46402  0.233640346535
 C1 0.759322 0.6273 0.54064  -0.0109662159653
 C1 0.848727 0.609474 0.5218  -0.0109662159653
 C2 0.86126 0.768444 0.48458  0.233640346535
 C2 0.127507 0.75277 0.59806  0.233640346535
 C1 0.290662 0.749957 0.58754  -0.0109662159653
 C1 0.223847 0.723318 0.51341  -0.0109662159653
 C1 0.043666 0.601714 0.32625  -0.0109662159653
 C1 0.969692 0.496835 0.27018  -0.0109662159653
 C2 0.86851 0.509668 0.35501  0.233640346535
 C3 0.45034 0.193802 0.61203  0.656210346535
 C4 0.533503 0.264324 0.7577  -0.0695209034653
 C5 0.54813 0.280349 0.6832  -0.107674653465
 C4 0.650396 0.381958 0.67641  -0.0695209034653
 C3 0.386846 0.281275 0.32546  0.656210346535
 C5 0.467044 0.373383 0.28693  -0.107674653465
 C4 0.44059 0.352604 0.20535  -0.0695209034653
 C4 0.570249 0.479609 0.33148  -0.0695209034653
 N1 0.020928 0.20376 0.92271  -0.412984653465
 N2 0.8335 0.079014 0.92474  -0.221282153465
 N1 0.727509 0.767891 0.01689  -0.412984653465
 N2 0.699864 0.913812 0.98564  -0.221282153465
 N1 0.767655 0.229071 0.14044  -0.412984653465
 N2 0.724305 0.119699 0.01977  -0.221282153465
 N2 0.609608 0.979512 0.88032  -0.221282153465
 N1 0.439721 0.859634 0.78866  -0.412984653465
 N1 0.796062 0.978728 0.57722  -0.412984653465
 N2 0.921157 0.166244 0.57504  -0.221282153465
 N1 0.232002 0.272928 0.48306  -0.412984653465
 N2 0.08606 0.300186 0.51409  -0.221282153465
 N1 0.770836 0.231719 0.35938  -0.412984653465
 N2 0.880551 0.275726 0.48001  -0.221282153465
 N2 0.020724 0.390564 0.61947  -0.221282153465
 N1 0.140766 0.560402 0.71134  -0.412984653465
 N1 0.979059 0.79626 0.07732  -0.412984653465
 N2 0.166487 0.921006 0.07529  -0.221282153465
 N1 0.272477 0.232131 0.98314  -0.412984653465
 N2 0.300123 0.08621 0.01439  -0.221282153465
 N1 0.232331 0.770953 0.85958  -0.412984653465
 N2 0.275679 0.880322 0.98025  -0.221282153465
 N2 0.39038 0.020506 0.1197  -0.221282153465
 N1 0.560267 0.140384 0.2113  -0.412984653465
 N1 0.203927 0.021296 0.42281  -0.412984653465
 N2 0.078832 0.83378 0.42499  -0.221282153465
 N1 0.767989 0.727096 0.5169  -0.412984653465
 N2 0.91393 0.699837 0.4859  -0.221282153465
 N1 0.229154 0.768304 0.64064  -0.412984653465
 N2 0.119438 0.724297 0.52002  -0.221282153465
 N2 0.979264 0.60946 0.38055  -0.221282153465
 N1 0.859222 0.439622 0.2886  -0.412984653465
 O1 0.094449 0.36957 0.11681  -0.611829653465
 O2 0.233561 0.461261 0.04892  -0.618129653465
 O1 0.196995 0.284645 0.7878  -0.611829653465
 O2 0.296031 0.434288 0.89840  -0.618129653465
 O1 0.631222 0.904689 0.38265  -0.611829653465
 O2 0.539085 0.765618 0.45065  -0.618129653465
 O1 0.714737 0.802511 0.71209  -0.611829653465
 O2 0.565855 0.702949 0.60132  -0.618129653465
 O1 0.90551 0.630491 0.8832  -0.611829653465
 O2 0.766423 0.538757 0.95111  -0.618129653465
 O1 0.803001 0.715368 0.21214  -0.611829653465
 O2 0.703953 0.565729 0.1016  -0.618129653465
 O1 0.368795 0.095312 0.61737  -0.611829653465
 O2 0.460905 0.234398 0.54937  -0.618129653465
 O1 0.285252 0.197516 0.28794  -0.611829653465
 O2 0.434137 0.297077 0.39871  -0.618129653465
