#======================================================================

# CRYSTAL DATA

#----------------------------------------------------------------------

data_VESTA_phase_1


_pd_phase_name                         MOF
_cell_length_a                         13.80400
_cell_length_b                         13.84000
_cell_length_c                         13.92200
_cell_angle_alpha                      108.74900
_cell_angle_beta                       89.96600
_cell_angle_gamma                      90.15500
_symmetry_space_group_name_H-M         "P 1"
_symmetry_Int_Tables_number            1

loop_
_symmetry_equiv_pos_as_xyz
   "x, y, z"

loop_
   _atom_site_label
   _atom_site_fract_x
   _atom_site_fract_y
   _atom_site_fract_z
 _atom_site_charge
 Zn1 0.057812 0.909984 0.96262  0.927026666667
 Zn1 0.558019 0.089413 0.53688  0.927026666667
 Zn1 0.942156 0.090072 0.0373  0.927026666667
 Zn1 0.441955 0.910642 0.46309  0.927026666667
 H1 0.883946 0.583677 0.1559  0.301936666667
 H2 0.918823 0.726818 0.11296  0.11949452381
 H2 0.771781 0.006261 0.26784  0.11949452381
 H2 0.685947 0.728027 0.32096  0.11949452381
 H2 0.014611 0.294692 0.15535  0.11949452381
 H2 0.955089 0.473281 0.22140  0.11949452381
 H2 0.668122 0.358315 0.12075  0.11949452381
 H2 0.741841 0.182662 0.05379  0.11949452381
 H1 0.385902 0.415776 0.34402  0.301936666667
 H2 0.421186 0.272082 0.38582  0.11949452381
 H2 0.271004 0.993284 0.23269  0.11949452381
 H2 0.185529 0.272136 0.18162  0.11949452381
 H2 0.515143 0.706847 0.34551  0.11949452381
 H2 0.45638 0.5276 0.28035  0.11949452381
 H2 0.169124 0.640049 0.38082  0.11949452381
 H2 0.242221 0.816611 0.44689  0.11949452381
 H1 0.116016 0.41636 0.84402  0.301936666667
 H2 0.081138 0.273216 0.88699  0.11949452381
 H2 0.228187 0.993776 0.73211  0.11949452381
 H2 0.314018 0.272013 0.67900  0.11949452381
 H2 0.985356 0.705354 0.84463  0.11949452381
 H2 0.044875 0.526764 0.77858  0.11949452381
 H2 0.331846 0.641725 0.87922  0.11949452381
 H2 0.258131 0.817377 0.94617  0.11949452381
 H1 0.614068 0.584269 0.65594  0.301936666667
 H2 0.578787 0.727962 0.61415  0.11949452381
 H2 0.728967 0.00676 0.76728  0.11949452381
 H2 0.814429 0.727911 0.81836  0.11949452381
 H2 0.484819 0.293189 0.6544  0.11949452381
 H2 0.543572 0.47244 0.7196  0.11949452381
 H2 0.830839 0.360006 0.61917  0.11949452381
 H2 0.75775 0.18344 0.55308  0.11949452381
 C1 0.804583 0.71485 0.21626  0.206776666667
 C2 0.863263 0.766677 0.16678  -0.141150333333
 C3 0.850787 0.871023 0.18398  -0.05801
 C2 0.780974 0.924789 0.25350  -0.141150333333
 C3 0.722184 0.872828 0.30252  -0.05801
 C2 0.73278 0.767707 0.2833  -0.141150333333
 C4 0.761923 0.535599 0.20933  0.512996666667
 C5 0.938871 0.312737 0.14745  0.160416666667
 C2 0.904461 0.412264 0.18370  -0.141150333333
 C3 0.805854 0.430526 0.17324  -0.05801
 C2 0.745388 0.346799 0.12827  -0.141150333333
 C5 0.785428 0.249796 0.09213  0.160416666667
 C6 0.910703 0.922338 0.12394  0.681776666667
 C6 0.645168 0.927886 0.37576  0.681776666667
 C1 0.305579 0.284667 0.28441  0.206776666667
 C2 0.364767 0.232529 0.33279  -0.141150333333
 C3 0.351649 0.128195 0.3155  -0.05801
 C2 0.280702 0.074745 0.24701  -0.141150333333
 C3 0.221481 0.127018 0.19897  -0.05801
 C2 0.23273 0.232149 0.21828  -0.141150333333
 C4 0.262986 0.46394 0.29279  0.512996666667
 C5 0.439538 0.68805 0.35349  0.160416666667
 C2 0.40551 0.588169 0.31779  -0.141150333333
 C3 0.306996 0.569161 0.3284  -0.05801
 C2 0.246291 0.652381 0.37320  -0.141150333333
 C5 0.285953 0.749778 0.40877  0.160416666667
 C6 0.41195 0.076763 0.37485  0.681776666667
 C6 0.14353 0.072502 0.12631  0.681776666667
 C1 0.195376 0.285186 0.78369  0.206776666667
 C2 0.136699 0.23336 0.83318  -0.141150333333
 C3 0.149179 0.129016 0.81598  -0.05801
 C2 0.218987 0.075247 0.74645  -0.141150333333
 C3 0.277776 0.127209 0.69743  -0.05801
 C2 0.26719 0.232333 0.71658  -0.141150333333
 C4 0.238045 0.464441 0.79065  0.512996666667
 C5 0.061096 0.68731 0.85253  0.160416666667
 C2 0.095503 0.587782 0.81627  -0.141150333333
 C3 0.194111 0.569515 0.82673  -0.05801
 C2 0.25458 0.653238 0.87170  -0.141150333333
 C5 0.214542 0.750243 0.9078  0.160416666667
 C6 0.089263 0.077699 0.87602  0.681776666667
 C6 0.354808 0.072153 0.62422  0.681776666667
 C1 0.694383 0.71538 0.71557  0.206776666667
 C2 0.635208 0.767512 0.66717  -0.141150333333
 C3 0.648317 0.871849 0.68445  -0.05801
 C2 0.719264 0.9253 0.7529  -0.141150333333
 C3 0.778487 0.873028 0.80100  -0.05801
 C2 0.767233 0.767899 0.78170  -0.141150333333
 C4 0.736957 0.536111 0.70723  0.512996666667
 C5 0.560426 0.311997 0.64649  0.160416666667
 C2 0.594451 0.411879 0.6821  -0.141150333333
 C3 0.692965 0.430883 0.67150  -0.05801
 C2 0.753673 0.347662 0.62678  -0.141150333333
 C5 0.714013 0.250265 0.59121  0.160416666667
 C6 0.588032 0.923275 0.6251  0.681776666667
 C6 0.856429 0.927545 0.87367  0.681776666667
 N1 0.822263 0.609553 0.19608  -0.415183333333
 N2 0.880723 0.232906 0.10126  -0.287973333333
 N1 0.323684 0.389978 0.30469  -0.415183333333
 N2 0.38114 0.767404 0.3993  -0.287973333333
 N1 0.177698 0.390484 0.80387  -0.415183333333
 N2 0.119248 0.767141 0.89871  -0.287973333333
 N1 0.676283 0.610066 0.6952  -0.415183333333
 N2 0.618821 0.232646 0.60061  -0.287973333333
 O1 0.679499 0.55029 0.24550  -0.497543333333
 O2 0.979102 0.869945 0.07118  -0.597275833333
 O2 0.886855 0.012663 0.12906  -0.597275833333
 O2 0.661152 0.0203 0.42844  -0.597275833333
 O2 0.569827 0.875873 0.37933  -0.597275833333
 O1 0.180002 0.449179 0.25  -0.497543333333
 O2 0.481451 0.128666 0.4264  -0.597275833333
 O2 0.387235 0.986735 0.37047  -0.597275833333
 O2 0.158614 0.980082 0.07324  -0.597275833333
 O2 0.068584 0.124896 0.12348  -0.597275833333
 O1 0.320464 0.449742 0.75446  -0.497543333333
 O2 0.020879 0.130101 0.92880  -0.597275833333
 O2 0.113106 0.987371 0.87089  -0.597275833333
 O2 0.338828 0.979739 0.5715  -0.597275833333
 O2 0.430136 0.124178 0.62062  -0.597275833333
 O1 0.819951 0.550866 0.74200  -0.497543333333
 O2 0.518533 0.87137 0.57354  -0.597275833333
 O2 0.612732 0.013312 0.62950  -0.597275833333
 O2 0.841361 0.019977 0.92671  -0.597275833333
 O2 0.931367 0.875147 0.87652  -0.597275833333
