#======================================================================

# CRYSTAL DATA

#----------------------------------------------------------------------

data_VESTA_phase_1


_pd_phase_name                         MOF
_cell_length_a                         14.71200
_cell_length_b                         18.13000
_cell_length_c                         25.12000
_cell_angle_alpha                      89.96200
_cell_angle_beta                       90.09700
_cell_angle_gamma                      90.04700
_symmetry_space_group_name_H-M         "P 1"
_symmetry_Int_Tables_number            1

loop_
_symmetry_equiv_pos_as_xyz
   "x, y, z"

loop_
   _atom_site_label
   _atom_site_fract_x
   _atom_site_fract_y
   _atom_site_fract_z
 _atom_site_charge
 Zn1 0.535246 0.065347 0.85192  0.940900148515
 Zn2 0.504164 0.256049 0.85161  1.13933514851
 Zn1 0.468369 0.447363 0.85178  0.940900148515
 Zn1 0.035336 0.434654 0.35190  0.940900148515
 Zn2 0.004113 0.243933 0.35161  1.13933514851
 Zn1 0.968102 0.052664 0.35180  0.940900148515
 Zn1 0.964662 0.565311 0.64811  0.940900148515
 Zn2 0.995886 0.756033 0.64839  1.13933514851
 Zn1 0.031897 0.9473 0.64820  0.940900148515
 Zn1 0.464752 0.93462 0.14808  0.940900148515
 Zn2 0.495834 0.743918 0.14840  1.13933514851
 Zn1 0.531629 0.552605 0.14822  0.940900148515
 H1 0.48486 0.948141 0.92896  0.108360929765
 H1 0.464639 0.811344 0.93167  0.108360929765
 H1 0.549654 0.805999 0.76689  0.108360929765
 H1 0.568346 0.942576 0.77168  0.108360929765
 H1 0.532439 0.563914 0.92555  0.108360929765
 H1 0.553439 0.700864 0.9276  0.108360929765
 H1 0.428702 0.708885 0.77163  0.108360929765
 H1 0.413888 0.571935 0.77613  0.108360929765
 H1 0.82472 0.090673 0.81279  0.108360929765
 H1 0.981799 0.138593 0.80432  0.108360929765
 H1 0.899687 0.339823 0.88233  0.108360929765
 H1 0.74213 0.291884 0.88826  0.108360929765
 H1 0.009323 0.386575 0.83594  0.108360929765
 H1 0.166575 0.433471 0.83722  0.108360929765
 H1 0.268865 0.211711 0.84126  0.108360929765
 H1 0.110943 0.163567 0.84449  0.108360929765
 H1 0.382268 0.017488 0.99103  0.108360929765
 H1 0.29427 0.017097 0.07486  0.108360929765
 H1 0.258056 0.252357 0.06166  0.108360929765
 H1 0.345637 0.251429 0.97653  0.108360929765
 H1 0.156852 0.027759 0.11046  0.108360929765
 H1 0.075701 0.023448 0.19695  0.108360929765
 H1 0.187297 0.233712 0.2398  0.108360929765
 H1 0.269881 0.239173 0.15335  0.108360929765
 H1 0.334203 0.03748 0.73480  0.108360929765
 H1 0.236366 0.035838 0.65467  0.108360929765
 H1 0.344127 0.248187 0.60867  0.108360929765
 H1 0.437789 0.250171 0.69111  0.108360929765
 H1 0.224831 0.019213 0.57295  0.108360929765
 H1 0.126221 0.012977 0.49360  0.108360929765
 H1 0.115508 0.249134 0.48632  0.108360929765
 H1 0.213661 0.257039 0.56718  0.108360929765
 H1 0.984948 0.551637 0.42888  0.108360929765
 H1 0.964587 0.688377 0.43163  0.108360929765
 H1 0.049742 0.694266 0.26687  0.108360929765
 H1 0.06858 0.557726 0.27163  0.108360929765
 H1 0.03227 0.935995 0.4255  0.108360929765
 H1 0.053361 0.799088 0.42760  0.108360929765
 H1 0.928576 0.791152 0.27162  0.108360929765
 H1 0.913661 0.92806 0.27613  0.108360929765
 H1 0.324967 0.409367 0.31272  0.108360929765
 H1 0.481915 0.361401 0.30429  0.108360929765
 H1 0.399283 0.160147 0.38241  0.108360929765
 H1 0.241873 0.208142 0.3883  0.108360929765
 H1 0.508861 0.113374 0.33610  0.108360929765
 H1 0.665998 0.066439 0.33738  0.108360929765
 H1 0.768803 0.288176 0.34123  0.108360929765
 H1 0.611011 0.336355 0.34444  0.108360929765
 H1 0.882383 0.48244 0.49082  0.108360929765
 H1 0.794387 0.482926 0.57465  0.108360929765
 H1 0.757769 0.247647 0.56182  0.108360929765
 H1 0.845343 0.248476 0.47667  0.108360929765
 H1 0.657029 0.472313 0.61030  0.108360929765
 H1 0.57599 0.476733 0.69681  0.108360929765
 H1 0.687149 0.266501 0.73995  0.108360929765
 H1 0.769631 0.260924 0.65347  0.108360929765
 H1 0.83412 0.462434 0.2348  0.108360929765
 H1 0.736223 0.464058 0.15473  0.108360929765
 H1 0.844133 0.25201 0.10868  0.108360929765
 H1 0.937812 0.250009 0.19111  0.108360929765
 H1 0.724617 0.48082 0.07301  0.108360929765
 H1 0.626037 0.486998 0.99366  0.108360929765
 H1 0.615579 0.250836 0.98636  0.108360929765
 H1 0.713706 0.242981 0.06722  0.108360929765
 H1 0.015041 0.448324 0.57112  0.108360929765
 H1 0.035399 0.311583 0.5683  0.108360929765
 H1 0.950266 0.305698 0.73313  0.108360929765
 H1 0.931431 0.442238 0.72837  0.108360929765
 H1 0.96772 0.063966 0.57446  0.108360929765
 H1 0.946629 0.200873 0.57241  0.108360929765
 H1 0.071424 0.20881 0.72838  0.108360929765
 H1 0.086337 0.071902 0.72387  0.108360929765
 H1 0.675032 0.590594 0.68728  0.108360929765
 H1 0.518084 0.638559 0.69571  0.108360929765
 H1 0.600715 0.839816 0.61759  0.108360929765
 H1 0.758126 0.791822 0.61169  0.108360929765
 H1 0.491139 0.886587 0.66391  0.108360929765
 H1 0.334002 0.933524 0.66263  0.108360929765
 H1 0.231195 0.711787 0.65877  0.108360929765
 H1 0.388987 0.663607 0.65556  0.108360929765
 H1 0.117611 0.517526 0.5091  0.108360929765
 H1 0.205606 0.517039 0.42535  0.108360929765
 H1 0.242225 0.752318 0.43818  0.108360929765
 H1 0.154653 0.75149 0.52333  0.108360929765
 H1 0.34296 0.527649 0.38970  0.108360929765
 H1 0.424 0.523229 0.30319  0.108360929765
 H1 0.31285 0.733465 0.26005  0.108360929765
 H1 0.230367 0.739042 0.34653  0.108360929765
 H1 0.16588 0.537531 0.76516  0.108360929765
 H1 0.26378 0.535909 0.84527  0.108360929765
 H1 0.155871 0.747958 0.89132  0.108360929765
 H1 0.06219 0.749958 0.80889  0.108360929765
 H1 0.275386 0.519148 0.92699  0.108360929765
 H1 0.373965 0.51297 0.00634  0.108360929765
 H1 0.384422 0.749131 0.01364  0.108360929765
 H1 0.286297 0.756987 0.93278  0.108360929765
 H1 0.51514 0.051826 0.07105  0.108360929765
 H1 0.535363 0.188623 0.06833  0.108360929765
 H1 0.450353 0.193969 0.23311  0.108360929765
 H1 0.43166 0.057392 0.22833  0.108360929765
 H1 0.467563 0.436052 0.07445  0.108360929765
 H1 0.446564 0.299102 0.07239  0.108360929765
 H1 0.571305 0.291083 0.2283  0.108360929765
 H1 0.586117 0.428033 0.2238  0.108360929765
 H1 0.175279 0.909297 0.18721  0.108360929765
 H1 0.0182 0.861378 0.19568  0.108360929765
 H1 0.10031 0.660143 0.11768  0.108360929765
 H1 0.257868 0.70808 0.11175  0.108360929765
 H1 0.990676 0.613394 0.16407  0.108360929765
 H1 0.833422 0.566498 0.16279  0.108360929765
 H1 0.731132 0.788258 0.15874  0.108360929765
 H1 0.889054 0.836401 0.15551  0.108360929765
 H1 0.617733 0.982478 0.00897  0.108360929765
 H1 0.705729 0.982868 0.92514  0.108360929765
 H1 0.741946 0.747609 0.93834  0.108360929765
 H1 0.654365 0.748538 0.02347  0.108360929765
 H1 0.843145 0.972206 0.88954  0.108360929765
 H1 0.924298 0.976512 0.80305  0.108360929765
 H1 0.812703 0.766244 0.76020  0.108360929765
 H1 0.730119 0.760788 0.84665  0.108360929765
 H1 0.665796 0.962485 0.26520  0.108360929765
 H1 0.763632 0.964125 0.34533  0.108360929765
 H1 0.65586 0.751781 0.39134  0.108360929765
 H1 0.5622 0.749797 0.30890  0.108360929765
 H1 0.775164 0.980751 0.4270  0.108360929765
 H1 0.873776 0.986987 0.50641  0.108360929765
 H1 0.884487 0.75083 0.5136  0.108360929765
 H1 0.786331 0.742926 0.43283  0.108360929765
 C1 0.498811 0.914098 0.89428  0.176037648515
 C2 0.487566 0.838184 0.89531  -0.105945387199
 C3 0.504834 0.797176 0.84914  -0.0261291371994
 C2 0.533791 0.835245 0.80358  -0.105945387199
 C1 0.544927 0.911237 0.80606  0.176037648515
 C1 0.5107 0.598591 0.89254  0.176037648515
 C2 0.521922 0.67451 0.89328  -0.105945387199
 C3 0.493633 0.716299 0.84929  -0.0261291371994
 C2 0.454049 0.678959 0.80623  -0.105945387199
 C1 0.444795 0.602793 0.80868  0.176037648515
 C4 0.679523 0.159355 0.85810  0.695510148515
 C3 0.773955 0.188013 0.85163  -0.0261291371994
 C2 0.842048 0.145272 0.82778  -0.105945387199
 C2 0.930152 0.172499 0.82339  -0.105945387199
 C3 0.953258 0.243035 0.84279  -0.0261291371994
 C2 0.883723 0.285691 0.8659  -0.105945387199
 C2 0.795524 0.258865 0.87015  -0.105945387199
 C3 0.047547 0.271237 0.84011  -0.0261291371994
 C2 0.065549 0.347533 0.8378  -0.105945387199
 C2 0.154189 0.374298 0.83805  -0.105945387199
 C3 0.227987 0.325473 0.83887  -0.0261291371994
 C2 0.211179 0.249283 0.8398  -0.105945387199
 C2 0.122439 0.222796 0.84102  -0.105945387199
 C4 0.324113 0.352331 0.83917  0.695510148515
 C4 0.423867 0.134638 0.92821  0.695510148515
 C3 0.369743 0.134648 0.97860  -0.0261291371994
 C2 0.353947 0.068737 0.00632  -0.105945387199
 C2 0.30406 0.06865 0.05324  -0.105945387199
 C3 0.269898 0.134778 0.0746  -0.0261291371994
 C2 0.285907 0.20075 0.04650  -0.105945387199
 C2 0.334243 0.200675 0.99887  -0.105945387199
 C3 0.219698 0.133734 0.1255  -0.0261291371994
 C2 0.16461 0.072917 0.13872  -0.105945387199
 C2 0.118888 0.070234 0.18699  -0.105945387199
 C3 0.127136 0.127938 0.22383  -0.0261291371994
 C2 0.181339 0.189067 0.21100  -0.105945387199
 C2 0.226627 0.191931 0.1624  -0.105945387199
 C4 0.078824 0.123903 0.2760  0.695510148515
 C4 0.451678 0.142655 0.76608  0.695510148515
 C3 0.392417 0.143645 0.71772  -0.0261291371994
 C2 0.335279 0.083517 0.70693  -0.105945387199
 C2 0.281004 0.082812 0.66170  -0.105945387199
 C3 0.282945 0.141838 0.62520  -0.0261291371994
 C2 0.339939 0.202289 0.63662  -0.105945387199
 C2 0.393479 0.203509 0.68240  -0.105945387199
 C3 0.226383 0.138787 0.57658  -0.0261291371994
 C2 0.200995 0.070194 0.55471  -0.105945387199
 C2 0.145594 0.06631 0.50998  -0.105945387199
 C3 0.113298 0.130755 0.4856  -0.0261291371994
 C2 0.139539 0.199419 0.50631  -0.105945387199
 C2 0.195304 0.203237 0.55102  -0.105945387199
 C4 0.051604 0.12704 0.43842  0.695510148515
 C1 0.998924 0.585785 0.39422  0.176037648515
 C2 0.987559 0.661674 0.39526  -0.105945387199
 C3 0.004848 0.702828 0.34911  -0.0261291371994
 C2 0.033865 0.664908 0.30355  -0.105945387199
 C1 0.045102 0.588932 0.30602  0.176037648515
 C1 0.010534 0.901352 0.39254  0.176037648515
 C2 0.02183 0.825451 0.39326  -0.105945387199
 C3 0.993541 0.783689 0.34927  -0.0261291371994
 C2 0.953926 0.821053 0.30622  -0.105945387199
 C1 0.944595 0.897199 0.30869  0.176037648515
 C4 0.179544 0.340689 0.35809  0.695510148515
 C3 0.273933 0.312032 0.35162  -0.0261291371994
 C2 0.342145 0.354755 0.32775  -0.105945387199
 C2 0.430185 0.327497 0.32338  -0.105945387199
 C3 0.453126 0.25694 0.34282  -0.0261291371994
 C2 0.383472 0.2143 0.36600  -0.105945387199
 C2 0.295342 0.241161 0.37018  -0.105945387199
 C3 0.547339 0.228706 0.34015  -0.0261291371994
 C2 0.565178 0.152407 0.33800  -0.105945387199
 C2 0.653761 0.125617 0.33817  -0.105945387199
 C3 0.727681 0.174422 0.33893  -0.0261291371994
 C2 0.711032 0.250614 0.3398  -0.105945387199
 C2 0.622355 0.277123 0.34102  -0.105945387199
 C4 0.823782 0.147589 0.33922  0.695510148515
 C4 0.923847 0.365273 0.42819  0.695510148515
 C3 0.869663 0.365267 0.47856  -0.0261291371994
 C2 0.853981 0.431214 0.50619  -0.105945387199
 C2 0.804092 0.43135 0.55311  -0.105945387199
 C3 0.769818 0.365241 0.57461  -0.0261291371994
 C2 0.785711 0.299241 0.5465  -0.105945387199
 C2 0.834042 0.299256 0.49893  -0.105945387199
 C3 0.719649 0.366339 0.62549  -0.0261291371994
 C2 0.664714 0.427182 0.63863  -0.105945387199
 C2 0.619057 0.429928 0.68690  -0.105945387199
 C3 0.627242 0.37227 0.72383  -0.0261291371994
 C2 0.681267 0.311109 0.7110  -0.105945387199
 C2 0.726492 0.308181 0.66248  -0.105945387199
 C4 0.579054 0.376364 0.77610  0.695510148515
 C4 0.95165 0.357391 0.266  0.695510148515
 C3 0.892385 0.356405 0.21774  -0.0261291371994
 C2 0.835197 0.416452 0.20697  -0.105945387199
 C2 0.780907 0.417156 0.16174  -0.105945387199
 C3 0.782877 0.358206 0.12524  -0.0261291371994
 C2 0.839922 0.297836 0.13664  -0.105945387199
 C2 0.893464 0.296609 0.18242  -0.105945387199
 C3 0.726301 0.361241 0.07662  -0.0261291371994
 C2 0.700839 0.429825 0.05476  -0.105945387199
 C2 0.645465 0.433682 0.01003  -0.105945387199
 C3 0.613256 0.369211 0.98566  -0.0261291371994
 C2 0.639553 0.300568 0.00634  -0.105945387199
 C2 0.695294 0.296776 0.05106  -0.105945387199
 C4 0.551628 0.372909 0.93845  0.695510148515
 C1 0.0 0.414177 0.60578  0.176037648515
 C2 0.012432 0.338287 0.60474  -0.105945387199
 C3 0.995149 0.297134 0.65089  -0.0261291371994
 C2 0.966138 0.335056 0.69645  -0.105945387199
 C1 0.954903 0.411032 0.69399  0.176037648515
 C1 0.989458 0.098609 0.60747  0.176037648515
 C2 0.978162 0.17451 0.60674  -0.105945387199
 C3 0.006454 0.216273 0.65073  -0.0261291371994
 C2 0.046071 0.178909 0.69378  -0.105945387199
 C1 0.055401 0.102763 0.69132  0.176037648515
 C4 0.820454 0.659275 0.6419  0.695510148515
 C3 0.726065 0.68793 0.64838  -0.0261291371994
 C2 0.657854 0.645206 0.67225  -0.105945387199
 C2 0.569813 0.672464 0.6766  -0.105945387199
 C3 0.546872 0.743022 0.65719  -0.0261291371994
 C2 0.616526 0.785663 0.63401  -0.105945387199
 C2 0.704656 0.758803 0.62982  -0.105945387199
 C3 0.45266 0.771255 0.65985  -0.0261291371994
 C2 0.434821 0.847555 0.66201  -0.105945387199
 C2 0.346239 0.874345 0.6618  -0.105945387199
 C3 0.272318 0.825541 0.66107  -0.0261291371994
 C2 0.288966 0.749349 0.66018  -0.105945387199
 C2 0.377643 0.722839 0.65898  -0.105945387199
 C4 0.176217 0.852374 0.66078  0.695510148515
 C4 0.076151 0.634692 0.57181  0.695510148515
 C3 0.130332 0.634699 0.52144  -0.0261291371994
 C2 0.146014 0.568752 0.49381  -0.105945387199
 C2 0.195901 0.568615 0.446  -0.105945387199
 C3 0.230175 0.634724 0.425  -0.0261291371994
 C2 0.214283 0.700724 0.45343  -0.105945387199
 C2 0.165954 0.700709 0.5010  -0.105945387199
 C3 0.280345 0.633626 0.37451  -0.0261291371994
 C2 0.335277 0.572782 0.36137  -0.105945387199
 C2 0.380934 0.570035 0.31310  -0.105945387199
 C3 0.372753 0.627694 0.27617  -0.0261291371994
 C2 0.318729 0.688856 0.28893  -0.105945387199
 C2 0.273504 0.691785 0.33753  -0.105945387199
 C4 0.420942 0.6236 0.22390  0.695510148515
 C4 0.04835 0.642574 0.73391  0.695510148515
 C3 0.107616 0.643561 0.78226  -0.0261291371994
 C2 0.164806 0.583515 0.79303  -0.105945387199
 C2 0.219096 0.582811 0.83826  -0.105945387199
 C3 0.217126 0.641761 0.87476  -0.0261291371994
 C2 0.160081 0.702131 0.86336  -0.105945387199
 C2 0.10654 0.703358 0.81758  -0.105945387199
 C3 0.273703 0.638727 0.92338  -0.0261291371994
 C2 0.299164 0.570143 0.94524  -0.105945387199
 C2 0.354535 0.566285 0.98997  -0.105945387199
 C3 0.386744 0.630756 0.0143  -0.0261291371994
 C2 0.360446 0.699399 0.99366  -0.105945387199
 C2 0.304709 0.703192 0.94894  -0.105945387199
 C4 0.448369 0.627058 0.06155  0.695510148515
 C1 0.50119 0.085869 0.10572  0.176037648515
 C2 0.512437 0.161783 0.10469  -0.105945387199
 C3 0.49517 0.202791 0.15086  -0.0261291371994
 C2 0.466216 0.164722 0.19642  -0.105945387199
 C1 0.455077 0.08873 0.19395  0.176037648515
 C1 0.489303 0.401375 0.10746  0.176037648515
 C2 0.478081 0.325457 0.10672  -0.105945387199
 C3 0.506372 0.283668 0.1507  -0.0261291371994
 C2 0.545956 0.321008 0.19377  -0.105945387199
 C1 0.555209 0.397175 0.19132  0.176037648515
 C4 0.320475 0.840613 0.14190  0.695510148515
 C3 0.22604 0.811958 0.14837  -0.0261291371994
 C2 0.15795 0.854696 0.17222  -0.105945387199
 C2 0.069845 0.827471 0.17661  -0.105945387199
 C3 0.04674 0.756933 0.15722  -0.0261291371994
 C2 0.116275 0.714277 0.13406  -0.105945387199
 C2 0.204475 0.7411 0.12986  -0.105945387199
 C3 0.952449 0.728733 0.15990  -0.0261291371994
 C2 0.934451 0.652437 0.16212  -0.105945387199
 C2 0.845811 0.62567 0.16195  -0.105945387199
 C3 0.772012 0.674493 0.16114  -0.0261291371994
 C2 0.788816 0.750683 0.16018  -0.105945387199
 C2 0.877555 0.777172 0.15898  -0.105945387199
 C4 0.675884 0.647637 0.16083  0.695510148515
 C4 0.576131 0.86533 0.07180  0.695510148515
 C3 0.630256 0.865319 0.02140  -0.0261291371994
 C2 0.646052 0.931229 0.9936  -0.105945387199
 C2 0.69594 0.931315 0.9467  -0.105945387199
 C3 0.730102 0.865186 0.92537  -0.0261291371994
 C2 0.714093 0.799216 0.95350  -0.105945387199
 C2 0.665756 0.799291 0.00114  -0.105945387199
 C3 0.7803 0.866229 0.87449  -0.0261291371994
 C2 0.835388 0.927045 0.86128  -0.105945387199
 C2 0.88111 0.929726 0.81301  -0.105945387199
 C3 0.872864 0.872019 0.77617  -0.0261291371994
 C2 0.818661 0.810891 0.78900  -0.105945387199
 C2 0.773372 0.808029 0.83759  -0.105945387199
 C4 0.921175 0.876054 0.72393  0.695510148515
 C4 0.54832 0.857312 0.23392  0.695510148515
 C3 0.607577 0.856322 0.28228  -0.0261291371994
 C2 0.664719 0.916447 0.2930  -0.105945387199
 C2 0.718992 0.917152 0.33831  -0.105945387199
 C3 0.717048 0.858127 0.37481  -0.0261291371994
 C2 0.660051 0.797677 0.36338  -0.105945387199
 C2 0.606514 0.796457 0.31760  -0.105945387199
 C3 0.77361 0.861177 0.42343  -0.0261291371994
 C2 0.799 0.92977 0.445  -0.105945387199
 C2 0.854399 0.933654 0.49002  -0.105945387199
 C3 0.886698 0.86921 0.51440  -0.0261291371994
 C2 0.860453 0.800545 0.493  -0.105945387199
 C2 0.80469 0.796727 0.44899  -0.105945387199
 C4 0.948392 0.872924 0.56158  0.695510148515
 N1 0.527659 0.950423 0.85053  -0.335709851485
 N1 0.472696 0.562815 0.85095  -0.335709851485
 N1 0.027847 0.549605 0.35048  -0.335709851485
 N1 0.972475 0.937153 0.35096  -0.335709851485
 N1 0.972153 0.450358 0.64952  -0.335709851485
 N1 0.027519 0.062808 0.64905  -0.335709851485
 N1 0.472342 0.049545 0.14947  -0.335709851485
 N1 0.527307 0.437152 0.14905  -0.335709851485
 O1 0.663798 0.092806 0.84215  -0.613516518152
 O1 0.620476 0.199937 0.87981  -0.613516518152
 O1 0.338221 0.419724 0.85425  -0.613516518152
 O1 0.385661 0.308903 0.82434  -0.613516518152
 O1 0.476578 0.078472 0.92164  -0.613516518152
 O1 0.414106 0.187309 0.89591  -0.613516518152
 O1 0.025476 0.068057 0.28227  -0.613516518152
 O1 0.093768 0.172923 0.31071  -0.613516518152
 O1 0.453297 0.080939 0.79159  -0.613516518152
 O1 0.496325 0.199623 0.77845  -0.613516518152
 O1 0.042717 0.063115 0.41645  -0.613516518152
 O1 0.011203 0.184867 0.42370  -0.613516518152
 O1 0.16388 0.407241 0.34211  -0.613516518152
 O1 0.120449 0.300062 0.3798  -0.613516518152
 O1 0.837823 0.080159 0.35426  -0.613516518152
 O1 0.885365 0.191111 0.32441  -0.613516518152
 O1 0.976636 0.421476 0.42161  -0.613516518152
 O1 0.914079 0.312615 0.39593  -0.613516518152
 O1 0.526021 0.432317 0.78230  -0.613516518152
 O1 0.593815 0.327294 0.81076  -0.613516518152
 O1 0.953305 0.419074 0.29159  -0.613516518152
 O1 0.996301 0.300454 0.27847  -0.613516518152
 O1 0.542766 0.436868 0.91648  -0.613516518152
 O1 0.511256 0.315054 0.92371  -0.613516518152
 O1 0.836119 0.592722 0.65790  -0.613516518152
 O1 0.879549 0.699902 0.62018  -0.613516518152
 O1 0.162178 0.919804 0.64574  -0.613516518152
 O1 0.114634 0.808853 0.67559  -0.613516518152
 O1 0.023362 0.578489 0.57839  -0.613516518152
 O1 0.085918 0.687351 0.60407  -0.613516518152
 O1 0.473973 0.567646 0.21770  -0.613516518152
 O1 0.406183 0.672672 0.18925  -0.613516518152
 O1 0.046693 0.58089 0.70841  -0.613516518152
 O1 0.0 0.699511 0.72153  -0.613516518152
 O1 0.457232 0.563099 0.08352  -0.613516518152
 O1 0.488743 0.684914 0.07629  -0.613516518152
 O1 0.336201 0.907161 0.15785  -0.613516518152
 O1 0.379522 0.800028 0.12019  -0.613516518152
 O1 0.661778 0.580243 0.14576  -0.613516518152
 O1 0.614336 0.691063 0.17566  -0.613516518152
 O1 0.523421 0.921496 0.07836  -0.613516518152
 O1 0.585893 0.812659 0.10409  -0.613516518152
 O1 0.974527 0.931897 0.7177  -0.613516518152
 O1 0.906229 0.827033 0.689  -0.613516518152
 O1 0.546701 0.919028 0.20841  -0.613516518152
 O1 0.503672 0.800344 0.22156  -0.613516518152
 O1 0.95728 0.936849 0.58355  -0.613516518152
 O1 0.988796 0.815098 0.57630  -0.613516518152
