#======================================================================

# CRYSTAL DATA

#----------------------------------------------------------------------

data_VESTA_phase_1


_pd_phase_name                         MOF
_cell_length_a                         13.27300
_cell_length_b                         14.19700
_cell_length_c                         17.28500
_cell_angle_alpha                      66.12200
_cell_angle_beta                       87.26200
_cell_angle_gamma                      89.82900
_symmetry_space_group_name_H-M         "P 1"
_symmetry_Int_Tables_number            1

loop_
_symmetry_equiv_pos_as_xyz
   "x, y, z"

loop_
   _atom_site_label
   _atom_site_fract_x
   _atom_site_fract_y
   _atom_site_fract_z
 _atom_site_charge
 Zn1 0.26659 0.843615 0.39145  1.02539869318
 Zn2 0.897827 0.443784 0.29429  1.01259369318
 Zn1 0.781033 0.588632 0.16452  1.02539869318
 Zn2 0.404571 0.98435 0.25804  1.01259369318
 Zn1 0.733598 0.156127 0.60968  1.02539869318
 Zn2 0.102075 0.556133 0.70608  1.01259369318
 Zn1 0.221784 0.411284 0.83588  1.02539869318
 Zn2 0.595567 0.015585 0.74333  1.01259369318
 H1 0.080376 0.722113 0.25810  0.101150984848
 H1 0.0 0.812428 0.99806  0.101150984848
 H1 0.234174 0.98072 0.06048  0.101150984848
 H1 0.165834 0.100414 0.93623  0.101150984848
 H1 0.268298 0.039108 0.90387  0.101150984848
 H1 0.076407 0.110373 0.80185  0.101150984848
 H1 0.15205 0.215154 0.29532  0.101150984848
 H1 0.104887 0.295741 0.50874  0.101150984848
 H1 0.300202 0.044952 0.52823  0.101150984848
 H1 0.204168 0.283802 0.62555  0.101150984848
 H1 0.104323 0.189517 0.65340  0.101150984848
 H1 0.303113 0.145993 0.74860  0.101150984848
 H1 0.568642 0.700506 0.2965  0.101150984848
 H1 0.728408 0.470216 0.49437  0.101150984848
 H1 0.492124 0.640269 0.55809  0.101150984848
 H1 0.702785 0.372451 0.63179  0.101150984848
 H1 0.778217 0.480934 0.62297  0.101150984848
 H1 0.650502 0.338314 0.78311  0.101150984848
 H1 0.824401 0.496407 0.74676  0.101150984848
 H1 0.74836 0.473675 0.89058  0.101150984848
 H1 0.854327 0.395448 0.89471  0.101150984848
 H1 0.799211 0.41661 0.01493  0.101150984848
 H1 0.667997 0.208928 0.25655  0.101150984848
 H1 0.603559 0.166764 0.03040  0.101150984848
 H1 0.921528 0.277184 0.74261  0.101150984848
 H1 0.00046 0.184981 0.  0.101150984848
 H1 0.76798 0.018695 0.94058  0.101150984848
 H1 0.836378 0.897701 0.0648  0.101150984848
 H1 0.734877 0.960939 0.09635  0.101150984848
 H1 0.925539 0.887084 0.19961  0.101150984848
 H1 0.845832 0.78381 0.70617  0.101150984848
 H1 0.893768 0.703493 0.49268  0.101150984848
 H1 0.700183 0.95579 0.47233  0.101150984848
 H1 0.795728 0.716519 0.37527  0.101150984848
 H1 0.896041 0.81017 0.34816  0.101150984848
 H1 0.698309 0.855745 0.25156  0.101150984848
 H1 0.432458 0.300916 0.70382  0.101150984848
 H1 0.272198 0.529874 0.50554  0.101150984848
 H1 0.507697 0.35829 0.44269  0.101150984848
 H1 0.297674 0.626481 0.36814  0.101150984848
 H1 0.221808 0.518078 0.37738  0.101150984848
 H1 0.349357 0.6602 0.21699  0.101150984848
 H1 0.176129 0.501297 0.25372  0.101150984848
 H1 0.252429 0.524413 0.10961  0.101150984848
 H1 0.146132 0.602157 0.10569  0.101150984848
 H1 0.200009 0.582907 0.9850  0.101150984848
 H1 0.331247 0.791404 0.74371  0.101150984848
 H1 0.396829 0.831475 0.97054  0.101150984848
 C1 0.220487 0.873876 0.22824  0.679806193182
 C1 0.954584 0.677041 0.15649  0.679806193182
 C2 0.161436 0.854407 0.16482  -0.0960750568182
 C3 0.09176 0.772501 0.19139  -0.138893806818
 C2 0.03516 0.757779 0.13078  -0.0960750568182
 C3 0.049199 0.822904 0.04516  -0.138893806818
 C4 0.121363 0.902929 0.01850  0.262803693182
 C3 0.177665 0.919247 0.07849  -0.138893806818
 C5 0.186857 0.054639 0.8995  0.128471193182
 C3 0.157709 0.107957 0.80996  -0.138893806818
 C1 0.269082 0.044668 0.37613  0.679806193182
 C1 0.04302 0.33646 0.3534  0.679806193182
 C2 0.232385 0.123248 0.40737  -0.0960750568182
 C3 0.169537 0.203072 0.35950  -0.138893806818
 C2 0.122524 0.262626 0.39804  -0.0960750568182
 C3 0.143654 0.248379 0.48097  -0.138893806818
 C4 0.211688 0.17279 0.52591  0.262803693182
 C3 0.25323 0.108063 0.48991  -0.138893806818
 C5 0.186449 0.200451 0.65424  0.128471193182
 C3 0.221438 0.149565 0.7423  -0.138893806818
 C1 0.44334 0.75796 0.39799  0.679806193182
 C1 0.715431 0.557554 0.32700  0.679806193182
 C2 0.523375 0.679458 0.42458  -0.0960750568182
 C3 0.580978 0.658677 0.36354  -0.138893806818
 C2 0.653349 0.582019 0.39024  -0.0960750568182
 C3 0.670828 0.528666 0.476  -0.138893806818
 C4 0.61307 0.550373 0.5371  0.262803693182
 C3 0.537938 0.624844 0.51073  -0.138893806818
 C5 0.708279 0.43637 0.65209  0.128471193182
 C3 0.706106 0.398084 0.74625  -0.138893806818
 C3 0.769547 0.436087 0.78451  -0.138893806818
 C5 0.775004 0.407818 0.87691  0.128471193182
 C4 0.707424 0.291974 0.01197  0.262803693182
 C3 0.753948 0.347909 0.05108  -0.138893806818
 C2 0.740161 0.317937 0.13907  -0.0960750568182
 C3 0.680678 0.231689 0.1886  -0.138893806818
 C2 0.630494 0.178396 0.14832  -0.0960750568182
 C3 0.644483 0.207592 0.06090  -0.138893806818
 C1 0.780312 0.389688 0.17409  0.679806193182
 C1 0.553034 0.097137 0.19720  0.679806193182
 C1 0.780146 0.126049 0.77294  0.679806193182
 C1 0.049393 0.321013 0.84393  0.679806193182
 C2 0.840402 0.145033 0.83606  -0.0960750568182
 C3 0.910646 0.226534 0.80931  -0.138893806818
 C2 0.968379 0.240556 0.86968  -0.0960750568182
 C3 0.954853 0.175065 0.95527  -0.138893806818
 C4 0.882247 0.095413 0.98213  0.262803693182
 C3 0.824837 0.079868 0.92238  -0.138893806818
 C5 0.81605 0.944127 0.10121  0.128471193182
 C3 0.844315 0.890868 0.19101  -0.138893806818
 C1 0.730749 0.955461 0.62478  0.679806193182
 C1 0.954653 0.662106 0.64853  0.679806193182
 C2 0.766768 0.876615 0.59363  -0.0960750568182
 C3 0.828753 0.796145 0.64185  -0.138893806818
 C2 0.875613 0.736344 0.60348  -0.0960750568182
 C3 0.855075 0.750995 0.52035  -0.138893806818
 C4 0.787788 0.82722 0.47504  0.262803693182
 C3 0.74648 0.892186 0.51089  -0.138893806818
 C5 0.813924 0.799768 0.34673  0.128471193182
 C3 0.779887 0.850856 0.25832  -0.138893806818
 C1 0.556797 0.241739 0.60294  0.679806193182
 C1 0.286244 0.444127 0.67292  0.679806193182
 C2 0.47691 0.32034 0.5760  -0.0960750568182
 C3 0.419842 0.342066 0.63683  -0.138893806818
 C2 0.34765 0.418865 0.60983  -0.0960750568182
 C3 0.329714 0.471361 0.5234  -0.138893806818
 C4 0.387103 0.448828 0.46322  0.262803693182
 C3 0.462137 0.374285 0.48988  -0.138893806818
 C5 0.29186 0.56234 0.34813  0.128471193182
 C3 0.293992 0.600244 0.25  -0.138893806818
 C3 0.230831 0.561748 0.21589  -0.138893806818
 C5 0.225471 0.590034 0.12347  0.128471193182
 C4 0.29252 0.706763 0.98850  0.262803693182
 C3 0.245491 0.651504 0.94908  -0.138893806818
 C2 0.258994 0.682024 0.86100  -0.0960750568182
 C3 0.318769 0.768205 0.81166  -0.138893806818
 C2 0.369413 0.820891 0.85230  -0.0960750568182
 C3 0.355635 0.791109 0.93980  -0.138893806818
 C1 0.218195 0.610807 0.82571  0.679806193182
 C1 0.446964 0.90225 0.80359  0.679806193182
 O1 0.293414 0.937738 0.20186  -0.599142306818
 O1 0.191781 0.822942 0.30725  -0.599142306818
 O1 0.959837 0.595894 0.22419  -0.599142306818
 O1 0.880341 0.696371 0.10687  -0.599142306818
 O2 0.129051 0.959049 0.93340  -0.271011306818
 O1 0.25309 0.95058 0.43047  -0.599142306818
 O1 0.310506 0.070243 0.30295  -0.599142306818
 O1 0.978581 0.365215 0.39768  -0.599142306818
 O1 0.036013 0.369192 0.27360  -0.599142306818
 O2 0.239798 0.151845 0.6059  -0.271011306818
 O1 0.453529 0.834767 0.32694  -0.599142306818
 O1 0.364791 0.741142 0.44913  -0.599142306818
 O1 0.786512 0.494416 0.35283  -0.599142306818
 O1 0.69281 0.604552 0.24859  -0.599142306818
 O2 0.622598 0.503286 0.62234  -0.271011306818
 O2 0.715531 0.317364 0.92648  -0.271011306818
 O1 0.781817 0.485772 0.12083  -0.599142306818
 O1 0.808299 0.358945 0.24922  -0.599142306818
 O1 0.497149 0.061202 0.1555  -0.599142306818
 O1 0.538099 0.067632 0.27652  -0.599142306818
 O1 0.706795 0.062688 0.79964  -0.599142306818
 O1 0.808464 0.176824 0.69381  -0.599142306818
 O1 0.043877 0.402776 0.77674  -0.599142306818
 O1 0.124285 0.300947 0.89297  -0.599142306818
 O2 0.875304 0.038811 0.06718  -0.271011306818
 O1 0.746767 0.049447 0.57024  -0.599142306818
 O1 0.689974 0.930181 0.69818  -0.599142306818
 O1 0.019405 0.633597 0.60424  -0.599142306818
 O1 0.961072 0.629199 0.72832  -0.599142306818
 O2 0.760352 0.848572 0.39474  -0.271011306818
 O1 0.546403 0.164981 0.67401  -0.599142306818
 O1 0.635466 0.258532 0.55197  -0.599142306818
 O1 0.213816 0.50557 0.64750  -0.599142306818
 O1 0.311098 0.399239 0.75096  -0.599142306818
 O2 0.377308 0.495148 0.37804  -0.271011306818
 O2 0.284673 0.680727 0.07409  -0.271011306818
 O1 0.214924 0.514681 0.87901  -0.599142306818
 O1 0.191224 0.641852 0.75025  -0.599142306818
 O1 0.502715 0.938105 0.84546  -0.599142306818
 O1 0.461994 0.931939 0.72429  -0.599142306818
