#======================================================================

# CRYSTAL DATA

#----------------------------------------------------------------------

data_VESTA_phase_1


_pd_phase_name                         MOF
_cell_length_a                         13.01900
_cell_length_b                         12.95100
_cell_length_c                         21.11700
_cell_angle_alpha                      85.76500
_cell_angle_beta                       85.79700
_cell_angle_gamma                      69.84300
_symmetry_space_group_name_H-M         "P 1"
_symmetry_Int_Tables_number            1

loop_
_symmetry_equiv_pos_as_xyz
   "x, y, z"

loop_
   _atom_site_label
   _atom_site_fract_x
   _atom_site_fract_y
   _atom_site_fract_z
 _atom_site_charge
 Cd1 0.07167 0.06351 0.18121  0.945945
 Cd2 0.568335 0.559056 0.08798  0.8532125
 Cd1 0.937223 0.927561 0.318  0.945945
 Cd2 0.441603 0.431013 0.41196  0.8532125
 Cd1 0.928364 0.93647 0.81877  0.945945
 Cd2 0.431699 0.440925 0.91199  0.8532125
 Cd1 0.06282 0.072407 0.68108  0.945945
 Cd2 0.55844 0.568958 0.5880  0.8532125
 H1 0.867841 0.142888 0.09728  0.107661666667
 H1 0.73902 0.465642 0.22525  0.107661666667
 H1 0.905324 0.298847 0.25473  0.107661666667
 H1 0.228626 0.218768 0.31434  0.107661666667
 H1 0.821216 0.10421 0.91384  0.107661666667
 H1 0.06761 0.041177 0.44357  0.107661666667
 H1 0.246595 0.22672 0.51653  0.107661666667
 H1 0.684708 0.113467 0.74033  0.107661666667
 H1 0.525081 0.282998 0.77172  0.107661666667
 H1 0.856689 0.132355 0.40264  0.107661666667
 H1 0.535346 0.260053 0.27476  0.107661666667
 H1 0.702263 0.094265 0.24492  0.107661666667
 H1 0.782404 0.770172 0.18559  0.107661666667
 H1 0.895763 0.17913 0.58595  0.107661666667
 H1 0.959693 0.931376 0.05640  0.107661666667
 H1 0.773217 0.75343 0.98338  0.107661666667
 H1 0.886445 0.31648 0.7593  0.107661666667
 H1 0.716328 0.475637 0.7284  0.107661666667
 H1 0.132182 0.857086 0.90270  0.107661666667
 H1 0.260999 0.534331 0.77473  0.107661666667
 H1 0.094693 0.701125 0.74525  0.107661666667
 H1 0.771404 0.781215 0.68564  0.107661666667
 H1 0.178814 0.895773 0.08614  0.107661666667
 H1 0.932426 0.9588 0.55641  0.107661666667
 H1 0.753442 0.773258 0.48345  0.107661666667
 H1 0.315325 0.886516 0.2596  0.107661666667
 H1 0.474949 0.716982 0.2282  0.107661666667
 H1 0.143351 0.86761 0.59733  0.107661666667
 H1 0.464685 0.739904 0.72522  0.107661666667
 H1 0.297768 0.905692 0.75506  0.107661666667
 H1 0.217644 0.229793 0.81438  0.107661666667
 H1 0.104281 0.820841 0.41403  0.107661666667
 H1 0.040344 0.068601 0.94358  0.107661666667
 H1 0.226811 0.246555 0.01660  0.107661666667
 H1 0.113599 0.683495 0.24060  0.107661666667
 H1 0.283718 0.524339 0.27155  0.107661666667
 C1 0.837572 0.213333 0.12724  0.09382
 C1 0.766489 0.391901 0.19791  0.09382
 C1 0.85753 0.300823 0.21409  0.09382
 C2 0.747755 0.305917 0.11024  0.12972
 C3 0.695987 0.311308 0.05103  0.28767375
 C4 0.208592 0.193571 0.36264  0.0208916666667
 C5 0.105536 0.087697 0.31640  0.655198333333
 C6 0.144592 0.125365 0.37282  -0.178635
 C1 0.755568 0.144046 0.88154  0.09382
 C2 0.668176 0.238515 0.89851  0.12972
 C3 0.663207 0.283686 0.95993  0.28767375
 C5 0.317742 0.299453 0.40489  0.655198333333
 C6 0.15308 0.132099 0.48689  -0.178635
 C4 0.117549 0.093764 0.43509  0.0208916666667
 C4 0.218409 0.198254 0.47617  0.0208916666667
 C6 0.247187 0.228717 0.41423  -0.178635
 C1 0.679622 0.149823 0.78590  0.09382
 C1 0.592674 0.24402 0.80275  0.09382
 C5 0.120357 0.105634 0.55413  0.655198333333
 C1 0.786528 0.162352 0.37270  0.09382
 C1 0.608711 0.232816 0.3021  0.09382
 C1 0.699917 0.142054 0.28573  0.09382
 C2 0.693827 0.251811 0.38994  0.12972
 C3 0.688085 0.303488 0.44930  0.28767375
 C4 0.807374 0.790391 0.13729  0.0208916666667
 C5 0.913882 0.892673 0.18361  0.655198333333
 C6 0.875817 0.854119 0.12713  -0.178635
 C1 0.855735 0.244829 0.61833  0.09382
 C2 0.7609 0.331865 0.60165  0.12972
 C3 0.715572 0.336436 0.54038  0.28767375
 C5 0.700523 0.68222 0.09505  0.655198333333
 C6 0.868334 0.846411 0.01305  -0.178635
 C4 0.907053 0.881512 0.0648  0.0208916666667
 C4 0.801977 0.781291 0.02376  0.0208916666667
 C6 0.771662 0.75236 0.08570  -0.178635
 C1 0.849945 0.321257 0.71393  0.09382
 C1 0.755433 0.407897 0.6973  0.09382
 C5 0.894739 0.879323 0.94581  0.655198333333
 C1 0.16245 0.786641 0.8727  0.09382
 C1 0.233531 0.608072 0.80207  0.09382
 C1 0.14249 0.699149 0.78589  0.09382
 C2 0.252268 0.694057 0.88974  0.12972
 C3 0.304038 0.688668 0.94895  0.28767375
 C4 0.79144 0.80641 0.6373  0.0208916666667
 C5 0.894498 0.912283 0.68358  0.655198333333
 C6 0.855441 0.874615 0.62715  -0.178635
 C1 0.244461 0.855934 0.11844  0.09382
 C2 0.331853 0.761465 0.10146  0.12972
 C3 0.336821 0.716292 0.04005  0.28767375
 C5 0.682291 0.700528 0.59508  0.655198333333
 C6 0.846958 0.867878 0.51309  -0.178635
 C4 0.882487 0.906214 0.56489  0.0208916666667
 C4 0.781626 0.801724 0.52381  0.0208916666667
 C6 0.752846 0.771265 0.58575  -0.178635
 C1 0.32041 0.850159 0.21407  0.09382
 C1 0.407356 0.755961 0.19722  0.09382
 C5 0.879681 0.894343 0.44585  0.655198333333
 C1 0.21351 0.837612 0.62728  0.09382
 C1 0.391323 0.767143 0.6978  0.09382
 C1 0.300117 0.857906 0.71425  0.09382
 C2 0.306212 0.748152 0.61004  0.12972
 C3 0.311956 0.696477 0.55067  0.28767375
 C4 0.19266 0.209586 0.8626  0.0208916666667
 C5 0.086163 0.107292 0.81636  0.655198333333
 C6 0.124219 0.145857 0.8728  -0.178635
 C1 0.14431 0.755143 0.38164  0.09382
 C2 0.239145 0.668106 0.39832  0.12972
 C3 0.284472 0.663533 0.45959  0.28767375
 C5 0.29952 0.31775 0.90492  0.655198333333
 C6 0.131687 0.153586 0.98692  -0.178635
 C4 0.092977 0.118472 0.93511  0.0208916666667
 C4 0.19805 0.218699 0.97622  0.0208916666667
 C6 0.228365 0.247626 0.91428  -0.178635
 C1 0.1501 0.678717 0.28604  0.09382
 C1 0.244613 0.592078 0.30264  0.09382
 C5 0.105304 0.120651 0.0541  0.655198333333
 N1 0.89193 0.21122 0.17888  -0.25877
 N2 0.710821 0.394678 0.146  -0.343758333333
 N3 0.6066 0.397662 0.03473  -0.24401
 N2 0.734329 0.237343 0.00581  -0.343758333333
 N3 0.585377 0.379725 0.97550  -0.24401
 N1 0.761242 0.100297 0.8254  -0.25877
 N2 0.587129 0.289669 0.85862  -0.343758333333
 N1 0.789151 0.107954 0.32089  -0.25877
 N2 0.605424 0.2885 0.35392  -0.343758333333
 N3 0.601579 0.392582 0.46583  -0.24401
 N2 0.762055 0.265423 0.49438  -0.343758333333
 N3 0.619403 0.41392 0.52505  -0.24401
 N1 0.899617 0.239557 0.67429  -0.25877
 N2 0.709624 0.412997 0.64164  -0.343758333333
 N1 0.108091 0.788753 0.82110  -0.25877
 N2 0.289203 0.605297 0.85368  -0.343758333333
 N3 0.39343 0.602319 0.9652  -0.24401
 N2 0.265695 0.762632 0.99417  -0.343758333333
 N3 0.414654 0.620256 0.02448  -0.24401
 N1 0.23879 0.899685 0.17454  -0.25877
 N2 0.4129 0.71031 0.14136  -0.343758333333
 N1 0.210885 0.892009 0.67908  -0.25877
 N2 0.394612 0.711461 0.64606  -0.343758333333
 N3 0.398464 0.607386 0.53414  -0.24401
 N2 0.237987 0.734544 0.50560  -0.343758333333
 N3 0.380641 0.58605 0.47492  -0.24401
 N1 0.100428 0.760415 0.32569  -0.25877
 N2 0.290422 0.586976 0.3583  -0.343758333333
 O1 0.102407 0.14583 0.26425  -0.597751
 O1 0.080531 0.000655 0.32210  -0.597751
 O2 0.057502 0.0487 0.56437  -0.632595
 O2 0.346553 0.328681 0.34974  -0.632595
 O1 0.346761 0.328533 0.45600  -0.597751
 O1 0.155273 0.143081 0.5993  -0.597751
 O1 0.857159 0.894001 0.23601  -0.597751
 O1 0.999698 0.919087 0.17775  -0.597751
 O2 0.951678 0.942191 0.93560  -0.632595
 O2 0.670974 0.653783 0.15022  -0.632595
 O1 0.671395 0.65322 0.04396  -0.597751
 O1 0.857169 0.844583 0.90055  -0.597751
 O1 0.897626 0.854151 0.73573  -0.597751
 O1 0.919502 0.999326 0.6778  -0.597751
 O2 0.942535 0.951278 0.43560  -0.632595
 O2 0.65348 0.671301 0.65024  -0.632595
 O1 0.653272 0.671449 0.54398  -0.597751
 O1 0.844768 0.856892 0.40062  -0.597751
 O1 0.142892 0.105956 0.76397  -0.597751
 O1 0.000344 0.080884 0.82222  -0.597751
 O2 0.048355 0.057792 0.06438  -0.632595
 O2 0.329062 0.34619 0.84976  -0.632595
 O1 0.328639 0.346762 0.95601  -0.597751
 O1 0.142862 0.155403 0.09942  -0.597751
