#======================================================================

# CRYSTAL DATA

#----------------------------------------------------------------------

data_VESTA_phase_1


_pd_phase_name                         MOF
_cell_length_a                         18.46400
_cell_length_b                         18.45600
_cell_length_c                         18.45400
_cell_angle_alpha                      59.99800
_cell_angle_beta                       60.02600
_cell_angle_gamma                      60.02900
_symmetry_space_group_name_H-M         "P 1"
_symmetry_Int_Tables_number            1

loop_
_symmetry_equiv_pos_as_xyz
   "x, y, z"

loop_
   _atom_site_label
   _atom_site_fract_x
   _atom_site_fract_y
   _atom_site_fract_z
 _atom_site_charge
 Zn1 0.611518 0.785336 0.61152  1.1160085967
 Zn1 0.198513 0.024331 0.19855  1.1160085967
 Zn1 0.611502 0.611508 0.78537  1.1160085967
 Zn1 0.198518 0.198536 0.02431  1.1160085967
 Zn1 0.7852 0.61154 0.61154  1.1160085967
 Zn1 0.024507 0.198536 0.19855  1.1160085967
 Zn1 0.61143 0.611266 0.61126  1.1160085967
 Zn1 0.198547 0.198606 0.19862  1.1160085967
 Zn1 0.214742 0.388466 0.3884  1.1160085967
 Zn1 0.975434 0.801471 0.80146  1.1160085967
 Zn1 0.38844 0.388497 0.21464  1.1160085967
 Zn1 0.801424 0.80147 0.97571  1.1160085967
 Zn1 0.388424 0.21467 0.38850  1.1160085967
 Zn1 0.80143 0.975675 0.80147  1.1160085967
 Zn1 0.388512 0.38874 0.38876  1.1160085967
 Zn1 0.801397 0.8014 0.80140  1.1160085967
 H1 0.359539 0.836527 0.06941  0.105283596698
 H1 0.455087 0.740675 0.97370  0.105283596698
 H1 0.069236 0.35926 0.83652  0.105283596698
 H1 0.973408 0.454841 0.74070  0.105283596698
 H1 0.836686 0.069398 0.35984  0.105283596698
 H1 0.740781 0.973685 0.45537  0.105283596698
 H1 0.836693 0.359853 0.0694  0.105283596698
 H1 0.740773 0.455394 0.97375  0.105283596698
 H1 0.35951 0.069371 0.83652  0.105283596698
 H1 0.455056 0.973637 0.74067  0.105283596698
 H1 0.069247 0.836541 0.35930  0.105283596698
 H1 0.973438 0.740703 0.45487  0.105283596698
 H1 0.356735 0.069478 0.35748  0.105283596698
 H1 0.452371 0.97422 0.45302  0.105283596698
 H1 0.357225 0.836742 0.35679  0.105283596698
 H1 0.453458 0.740833 0.45282  0.105283596698
 H1 0.356733 0.357428 0.06949  0.105283596698
 H1 0.452374 0.45297 0.97426  0.105283596698
 H1 0.357224 0.356822 0.83670  0.105283596698
 H1 0.453453 0.452856 0.74081  0.105283596698
 H1 0.069498 0.35718 0.35725  0.105283596698
 H1 0.974153 0.452762 0.45282  0.105283596698
 H1 0.837037 0.35693 0.35690  0.105283596698
 H1 0.741073 0.453054 0.45300  0.105283596698
 H1 0.163248 0.640153 0.93058  0.105283596698
 H1 0.259168 0.544613 0.02627  0.105283596698
 H1 0.64043 0.930635 0.16350  0.105283596698
 H1 0.544885 0.026369 0.2593  0.105283596698
 H1 0.930695 0.163465 0.6407  0.105283596698
 H1 0.026504 0.259303 0.54515  0.105283596698
 H1 0.640402 0.163479 0.93061  0.105283596698
 H1 0.544856 0.259331 0.02632  0.105283596698
 H1 0.930705 0.640746 0.16350  0.105283596698
 H1 0.026533 0.545166 0.25932  0.105283596698
 H1 0.163255 0.930608 0.64018  0.105283596698
 H1 0.259161 0.026321 0.54465  0.105283596698
 H1 0.930443 0.642824 0.64277  0.105283596698
 H1 0.025788 0.547245 0.54720  0.105283596698
 H1 0.162905 0.643074 0.64312  0.105283596698
 H1 0.258869 0.546953 0.54702  0.105283596698
 H1 0.643209 0.642577 0.93053  0.105283596698
 H1 0.547565 0.547039 0.02576  0.105283596698
 H1 0.64272 0.643182 0.16332  0.105283596698
 H1 0.546487 0.547151 0.25921  0.105283596698
 H1 0.643206 0.930528 0.64254  0.105283596698
 H1 0.547571 0.025786 0.54700  0.105283596698
 H1 0.642713 0.163264 0.64323  0.105283596698
 H1 0.546482 0.259173 0.54720  0.105283596698
 C1 0.380824 0.865861 0.99740  -0.0523264033019
 C1 0.433911 0.812598 0.94416  -0.0523264033019
 C1 0.997256 0.380697 0.8658  -0.0523264033019
 C1 0.943977 0.433787 0.81264  -0.0523264033019
 C1 0.865929 0.997392 0.38102  -0.0523264033019
 C1 0.812645 0.944157 0.43409  -0.0523264033019
 C1 0.865931 0.381026 0.99743  -0.0523264033019
 C1 0.812637 0.434101 0.94420  -0.0523264033019
 C1 0.380806 0.997365 0.86586  -0.0523264033019
 C1 0.433894 0.944119 0.81261  -0.0523264033019
 C1 0.997265 0.865875 0.38073  -0.0523264033019
 C1 0.943996 0.812626 0.43381  -0.0523264033019
 C2 0.293933 0.016148 0.29416  0.720845055031
 C3 0.351293 0.95876 0.35146  -0.132139528302
 C1 0.378043 0.997617 0.37849  -0.0523264033019
 C1 0.43136 0.944508 0.43174  -0.0523264033019
 C1 0.378506 0.865995 0.37829  -0.0523264033019
 C1 0.431821 0.812866 0.43150  -0.0523264033019
 C3 0.458631 0.851752 0.45862  -0.132139528302
 C2 0.515971 0.794452 0.51587  0.720845055031
 C2 0.293927 0.294155 0.01613  0.720845055031
 C3 0.351293 0.351456 0.95875  -0.132139528302
 C1 0.378047 0.37846 0.99763  -0.0523264033019
 C1 0.431361 0.431709 0.94453  -0.0523264033019
 C1 0.378505 0.378307 0.86597  -0.0523264033019
 C1 0.431817 0.431517 0.81285  -0.0523264033019
 C3 0.458622 0.458622 0.85176  -0.132139528302
 C2 0.515955 0.515875 0.79446  0.720845055031
 C2 0.016317 0.294055 0.29408  0.720845055031
 C3 0.958903 0.351383 0.35139  -0.132139528302
 C1 0.997662 0.378312 0.37835  -0.0523264033019
 C1 0.944521 0.431581 0.43162  -0.0523264033019
 C1 0.866209 0.378359 0.37834  -0.0523264033019
 C1 0.81305 0.431607 0.43159  -0.0523264033019
 C3 0.851836 0.458609 0.45862  -0.132139528302
 C2 0.794512 0.515892 0.51590  0.720845055031
 C2 0.295474 0.01593 0.01593  0.720845055031
 C3 0.353685 0.958615 0.95863  -0.132139528302
 C3 0.46075 0.851346 0.85138  -0.132139528302
 C2 0.5173 0.794116 0.79415  0.720845055031
 C2 0.01599 0.29546 0.01593  0.720845055031
 C3 0.958608 0.353727 0.95864  -0.132139528302
 C3 0.851279 0.460784 0.85142  -0.132139528302
 C2 0.794029 0.517319 0.79420  0.720845055031
 C2 0.015986 0.015939 0.29548  0.720845055031
 C3 0.958607 0.958628 0.35374  -0.132139528302
 C3 0.851298 0.851388 0.46078  -0.132139528302
 C2 0.794053 0.794162 0.51730  0.720845055031
 C1 0.13401 0.61898 0.00259  -0.0523264033019
 C1 0.187304 0.565903 0.0558  -0.0523264033019
 C1 0.619136 0.002641 0.13416  -0.0523264033019
 C1 0.566046 0.055887 0.18741  -0.0523264033019
 C1 0.002676 0.134131 0.61929  -0.0523264033019
 C1 0.055945 0.18738 0.56621  -0.0523264033019
 C1 0.619118 0.134145 0.00262  -0.0523264033019
 C1 0.56603 0.187407 0.0558  -0.0523264033019
 C1 0.002685 0.61931 0.13414  -0.0523264033019
 C1 0.055964 0.566218 0.18738  -0.0523264033019
 C1 0.134013 0.002614 0.61900  -0.0523264033019
 C1 0.187296 0.055849 0.56593  -0.0523264033019
 C2 0.983625 0.705953 0.70594  0.720845055031
 C3 0.041039 0.648624 0.64862  -0.132139528302
 C1 0.002279 0.621695 0.62167  -0.0523264033019
 C1 0.055421 0.568422 0.56840  -0.0523264033019
 C1 0.133733 0.621648 0.62168  -0.0523264033019
 C1 0.186891 0.568396 0.5684  -0.0523264033019
 C3 0.148106 0.541397 0.54140  -0.132139528302
 C2 0.20543 0.484116 0.48412  0.720845055031
 C2 0.706016 0.705851 0.98389  0.720845055031
 C3 0.648648 0.64855 0.04127  -0.132139528302
 C1 0.621893 0.621547 0.00239  -0.0523264033019
 C1 0.568581 0.568297 0.05549  -0.0523264033019
 C1 0.621435 0.6217 0.13405  -0.0523264033019
 C1 0.568126 0.568488 0.18717  -0.0523264033019
 C3 0.541318 0.541385 0.14826  -0.132139528302
 C2 0.483985 0.484133 0.2055  0.720845055031
 C2 0.706008 0.983859 0.70586  0.720845055031
 C3 0.648647 0.041246 0.64856  -0.132139528302
 C1 0.621899 0.002389 0.62153  -0.0523264033019
 C1 0.568581 0.055498 0.56828  -0.0523264033019
 C1 0.621434 0.134011 0.62173  -0.0523264033019
 C1 0.568119 0.18714 0.56852  -0.0523264033019
 C3 0.541309 0.148254 0.54140  -0.132139528302
 C2 0.483969 0.205554 0.48415  0.720845055031
 C2 0.983951 0.704549 0.9840  0.720845055031
 C3 0.041333 0.646281 0.04138  -0.132139528302
 C3 0.148662 0.539222 0.14860  -0.132139528302
 C2 0.205912 0.482689 0.20582  0.720845055031
 C2 0.704468 0.984076 0.98409  0.720845055031
 C3 0.646257 0.04139 0.04139  -0.132139528302
 C3 0.539192 0.14866 0.14864  -0.132139528302
 C2 0.482641 0.20589 0.20587  0.720845055031
 C2 0.983955 0.984067 0.70454  0.720845055031
 C3 0.041334 0.041378 0.64628  -0.132139528302
 C3 0.148644 0.148618 0.53924  -0.132139528302
 C2 0.205889 0.205844 0.4827  0.720845055031
 O1 0.53921 0.833562 0.71019  -0.613248486635
 O1 0.272919 0.976294 0.09978  -0.613248486635
 O1 0.710142 0.539254 0.83364  -0.613248486635
 O1 0.099752 0.272763 0.97629  -0.613248486635
 O1 0.833434 0.710218 0.53920  -0.613248486635
 O1 0.976398 0.099775 0.27302  -0.613248486635
 O1 0.833411 0.539175 0.71024  -0.613248486635
 O1 0.976407 0.273024 0.09978  -0.613248486635
 O1 0.53918 0.710164 0.83361  -0.613248486635
 O1 0.272939 0.099774 0.976  -0.613248486635
 O1 0.710166 0.833588 0.53924  -0.613248486635
 O1 0.099744 0.976302 0.27281  -0.613248486635
 O1 0.538046 0.834065 0.53807  -0.613248486635
 O1 0.538213 0.710583 0.53786  -0.613248486635
 O1 0.271976 0.099941 0.27208  -0.613248486635
 O1 0.271776 0.976495 0.27216  -0.613248486635
 O1 0.538051 0.53804 0.83409  -0.613248486635
 O1 0.538202 0.537874 0.71058  -0.613248486635
 O1 0.271971 0.272066 0.09993  -0.613248486635
 O1 0.271772 0.27217 0.97648  -0.613248486635
 O1 0.834047 0.538086 0.53806  -0.613248486635
 O1 0.710707 0.53798 0.53796  -0.613248486635
 O1 0.100052 0.272056 0.27208  -0.613248486635
 O1 0.976679 0.271938 0.27200  -0.613248486635
 O2 0.654815 0.654846 0.65486  -1.2727720283
 O2 0.155071 0.155002 0.15500  -1.2727720283
 O1 0.16653 0.46083 0.28978  -0.613248486635
 O1 0.023534 0.726983 0.9002  -0.613248486635
 O1 0.460761 0.289842 0.16641  -0.613248486635
 O1 0.727002 0.900232 0.02372  -0.613248486635
 O1 0.289776 0.166418 0.46078  -0.613248486635
 O1 0.900198 0.023705 0.72720  -0.613248486635
 O1 0.460732 0.166443 0.28983  -0.613248486635
 O1 0.727025 0.023711 0.9002  -0.613248486635
 O1 0.289799 0.460751 0.16638  -0.613248486635
 O1 0.900189 0.727244 0.02373  -0.613248486635
 O1 0.166508 0.289789 0.46082  -0.613248486635
 O1 0.023542 0.900231 0.72700  -0.613248486635
 O1 0.165895 0.461919 0.46196  -0.613248486635
 O1 0.289234 0.462023 0.4620  -0.613248486635
 O1 0.89989 0.72795 0.72794  -0.613248486635
 O1 0.023262 0.728065 0.72802  -0.613248486635
 O1 0.461893 0.461963 0.16593  -0.613248486635
 O1 0.46174 0.462132 0.28944  -0.613248486635
 O1 0.727974 0.727939 0.90009  -0.613248486635
 O1 0.72817 0.727836 0.02354  -0.613248486635
 O1 0.461898 0.165942 0.46195  -0.613248486635
 O1 0.461725 0.289423 0.46217  -0.613248486635
 O1 0.727974 0.900066 0.72793  -0.613248486635
 O1 0.728161 0.023511 0.72786  -0.613248486635
 O2 0.345127 0.34516 0.34515  -1.2727720283
 O2 0.84487 0.845004 0.84502  -1.2727720283
