#======================================================================

# CRYSTAL DATA

#----------------------------------------------------------------------

data_VESTA_phase_1


_pd_phase_name                         MOF
_cell_length_a                         16.50100
_cell_length_b                         19.54200
_cell_length_c                         19.54000
_cell_angle_alpha                      90.00000
_cell_angle_beta                       89.99400
_cell_angle_gamma                      90.03900
_symmetry_space_group_name_H-M         "P 1"
_symmetry_Int_Tables_number            1

loop_
_symmetry_equiv_pos_as_xyz
   "x, y, z"

loop_
   _atom_site_label
   _atom_site_fract_x
   _atom_site_fract_y
   _atom_site_fract_z
 _atom_site_charge
 Zn1 0.816126 0.883241 0.33358  0.732090294118
 Zn1 0.816132 0.116792 0.66644  0.732090294118
 Zn1 0.316141 0.166446 0.38322  0.732090294118
 Zn1 0.316117 0.833603 0.61679  0.732090294118
 Zn1 0.683863 0.616756 0.83360  0.732090294118
 Zn1 0.683862 0.383209 0.16643  0.732090294118
 Zn1 0.183852 0.333558 0.88324  0.732090294118
 Zn1 0.183866 0.666393 0.11678  0.732090294118
 Zn1 0.183864 0.116758 0.66643  0.732090294118
 Zn1 0.183858 0.883207 0.33357  0.732090294118
 Zn1 0.683848 0.833553 0.61679  0.732090294118
 Zn1 0.683873 0.166395 0.3832  0.732090294118
 Zn1 0.316127 0.383243 0.1664  0.732090294118
 Zn1 0.316127 0.61679 0.83358  0.732090294118
 Zn1 0.816137 0.666442 0.11678  0.732090294118
 Zn1 0.816124 0.333606 0.88323  0.732090294118
 H1 0.915563 0.764576 0.40815  0.0846627941176
 H1 0.678514 0.886722 0.21378  0.0846627941176
 H1 0.881512 0.012079 0.24371  0.0846627941176
 H1 0.676319 0.770882 0.35727  0.0846627941176
 H1 0.707565 0.001555 0.4012  0.0846627941176
 H1 0.915834 0.235452 0.59186  0.0846627941176
 H1 0.678399 0.11325 0.78614  0.0846627941176
 H1 0.881414 0.988067 0.75637  0.0846627941176
 H1 0.676507 0.229122 0.64274  0.0846627941176
 H1 0.707605 0.998352 0.59875  0.0846627941176
 H1 0.415649 0.091891 0.26452  0.0846627941176
 H1 0.178521 0.286133 0.38681  0.0846627941176
 H1 0.381563 0.256336 0.51200  0.0846627941176
 H1 0.176415 0.142697 0.27087  0.0846627941176
 H1 0.207592 0.098738 0.50161  0.0846627941176
 H1 0.415746 0.908211 0.73545  0.0846627941176
 H1 0.178396 0.713813 0.61331  0.0846627941176
 H1 0.381352 0.743697 0.48800  0.0846627941176
 H1 0.176382 0.857237 0.72911  0.0846627941176
 H1 0.207617 0.901277 0.49841  0.0846627941176
 H1 0.5844 0.735422 0.90816  0.0846627941176
 H1 0.82148 0.613279 0.71378  0.0846627941176
 H1 0.618508 0.487926 0.74373  0.0846627941176
 H1 0.823652 0.72912 0.85727  0.0846627941176
 H1 0.792431 0.498448 0.90126  0.0846627941176
 H1 0.584182 0.264544 0.09186  0.0846627941176
 H1 0.821559 0.386782 0.28614  0.0846627941176
 H1 0.618531 0.51193 0.25636  0.0846627941176
 H1 0.823474 0.270863 0.14272  0.0846627941176
 H1 0.792395 0.501643 0.09875  0.0846627941176
 H1 0.084381 0.408107 0.76454  0.0846627941176
 H1 0.321458 0.213857 0.88681  0.0846627941176
 H1 0.118416 0.243683 0.01201  0.0846627941176
 H1 0.323595 0.357308 0.77087  0.0846627941176
 H1 0.292412 0.40126 0.00158  0.0846627941176
 H1 0.084198 0.591803 0.23545  0.0846627941176
 H1 0.321599 0.786171 0.11329  0.0846627941176
 H1 0.118642 0.756314 0.98803  0.0846627941176
 H1 0.323563 0.642754 0.22911  0.0846627941176
 H1 0.292352 0.598714 0.9984  0.0846627941176
 H1 0.084425 0.235418 0.5918  0.0846627941176
 H1 0.321474 0.113276 0.78623  0.0846627941176
 H1 0.118464 0.987918 0.75629  0.0846627941176
 H1 0.323658 0.229127 0.64274  0.0846627941176
 H1 0.292431 0.998445 0.59876  0.0846627941176
 H1 0.084155 0.764542 0.40814  0.0846627941176
 H1 0.321576 0.886761 0.21386  0.0846627941176
 H1 0.118571 0.011932 0.24364  0.0846627941176
 H1 0.323477 0.770873 0.35727  0.0846627941176
 H1 0.292386 0.001647 0.40126  0.0846627941176
 H1 0.58434 0.90812 0.73548  0.0846627941176
 H1 0.821456 0.713857 0.61320  0.0846627941176
 H1 0.618414 0.743673 0.48801  0.0846627941176
 H1 0.823571 0.857303 0.72915  0.0846627941176
 H1 0.792404 0.901256 0.49841  0.0846627941176
 H1 0.584242 0.0918 0.26456  0.0846627941176
 H1 0.821588 0.286191 0.38671  0.0846627941176
 H1 0.618632 0.256297 0.51201  0.0846627941176
 H1 0.823594 0.14276 0.27089  0.0846627941176
 H1 0.792374 0.098722 0.5016  0.0846627941176
 H1 0.415589 0.264585 0.0918  0.0846627941176
 H1 0.178498 0.386712 0.2862  0.0846627941176
 H1 0.381478 0.512073 0.25629  0.0846627941176
 H1 0.176328 0.270887 0.14274  0.0846627941176
 H1 0.20756 0.501552 0.09875  0.0846627941176
 H1 0.415806 0.735464 0.90813  0.0846627941176
 H1 0.178424 0.613222 0.71388  0.0846627941176
 H1 0.381444 0.488073 0.74364  0.0846627941176
 H1 0.176508 0.729129 0.85729  0.0846627941176
 H1 0.207603 0.498355 0.90127  0.0846627941176
 H1 0.915607 0.591887 0.23547  0.0846627941176
 H1 0.67853 0.786141 0.11320  0.0846627941176
 H1 0.881564 0.756325 0.98800  0.0846627941176
 H1 0.676379 0.642694 0.22913  0.0846627941176
 H1 0.707582 0.598737 0.99843  0.0846627941176
 H1 0.915791 0.408191 0.76456  0.0846627941176
 H1 0.678376 0.21384 0.88671  0.0846627941176
 H1 0.881339 0.243679 0.01198  0.0846627941176
 H1 0.676423 0.357245 0.77091  0.0846627941176
 H1 0.707642 0.401289 0.00161  0.0846627941176
 H1 6.7e-05 0.942948 0.31027  0.0846627941176
 H1 0.99992 0.057055 0.68975  0.0846627941176
 H1 0.500027 0.18974 0.44293  0.0846627941176
 H1 0.499962 0.810253 0.55708  0.0846627941176
 H1 0.499928 0.557047 0.81028  0.0846627941176
 H1 0.500061 0.442947 0.18974  0.0846627941176
 H1 0.999944 0.310267 0.94295  0.0846627941176
 H1 4.3e-05 0.689734 0.05707  0.0846627941176
 H1 0.877516 0.755219 0.24485  0.0846627941176
 H1 0.877579 0.244841 0.75523  0.0846627941176
 H1 0.377526 0.255233 0.25514  0.0846627941176
 H1 0.377561 0.744852 0.7447  0.0846627941176
 H1 0.622467 0.744771 0.74487  0.0846627941176
 H1 0.62243 0.255144 0.2552  0.0846627941176
 H1 0.122473 0.24478 0.7551  0.0846627941176
 H1 0.122416 0.755151 0.24479  0.0846627941176
 C1 0.958216 0.801249 0.38715  -0.0383372058824
 C1 0.719552 0.84418 0.20557  -0.0383372058824
 C1 0.837275 0.029295 0.28096  -0.0383372058824
 C1 0.691507 0.794101 0.40602  -0.0383372058824
 C2 0.747623 0.022434 0.36245  0.231020294118
 C1 0.958402 0.198764 0.61286  -0.0383372058824
 C1 0.719469 0.15581 0.79439  -0.0383372058824
 C1 0.837221 0.970789 0.71909  -0.0383372058824
 C1 0.691654 0.205892 0.59399  -0.0383372058824
 C2 0.747639 0.977528 0.63757  0.231020294118
 C1 0.458278 0.112871 0.30121  -0.0383372058824
 C1 0.219554 0.294384 0.34423  -0.0383372058824
 C1 0.337323 0.219067 0.52925  -0.0383372058824
 C1 0.191587 0.093957 0.29409  -0.0383372058824
 C2 0.247658 0.137554 0.52246  0.231020294118
 C1 0.458338 0.887181 0.69878  -0.0383372058824
 C1 0.21947 0.705589 0.65584  -0.0383372058824
 C1 0.337168 0.78096 0.47075  -0.0383372058824
 C1 0.191561 0.905996 0.70589  -0.0383372058824
 C2 0.247627 0.862462 0.47755  0.231020294118
 C1 0.541755 0.698749 0.88716  -0.0383372058824
 C1 0.780439 0.655819 0.70557  -0.0383372058824
 C1 0.662739 0.47071 0.78098  -0.0383372058824
 C1 0.808468 0.705899 0.90603  -0.0383372058824
 C2 0.752379 0.477569 0.86246  0.231020294118
 C1 0.541607 0.301234 0.11286  -0.0383372058824
 C1 0.780501 0.344212 0.29439  -0.0383372058824
 C1 0.662737 0.529208 0.21908  -0.0383372058824
 C1 0.808333 0.294096 0.09397  -0.0383372058824
 C2 0.752346 0.522467 0.13756  0.231020294118
 C1 0.041741 0.387128 0.80123  -0.0383372058824
 C1 0.280428 0.20561 0.84424  -0.0383372058824
 C1 0.162662 0.280947 0.02926  -0.0383372058824
 C1 0.30842 0.406047 0.79409  -0.0383372058824
 C2 0.252341 0.362448 0.02244  0.231020294118
 C1 0.041619 0.612827 0.19877  -0.0383372058824
 C1 0.280522 0.794398 0.15583  -0.0383372058824
 C1 0.162819 0.719046 0.97078  -0.0383372058824
 C1 0.308393 0.593996 0.20589  -0.0383372058824
 C2 0.252348 0.637533 0.97756  0.231020294118
 C1 0.041773 0.198746 0.61286  -0.0383372058824
 C1 0.280436 0.155818 0.79445  -0.0383372058824
 C1 0.162705 0.970703 0.71904  -0.0383372058824
 C1 0.308475 0.205905 0.59399  -0.0383372058824
 C2 0.252368 0.977565 0.63756  0.231020294118
 C1 0.041587 0.801232 0.38714  -0.0383372058824
 C1 0.280511 0.844196 0.20561  -0.0383372058824
 C1 0.162766 0.029211 0.28092  -0.0383372058824
 C1 0.308332 0.794103 0.40602  -0.0383372058824
 C2 0.252351 0.02247 0.36244  0.231020294118
 C1 0.541711 0.887137 0.69879  -0.0383372058824
 C1 0.780427 0.705609 0.65577  -0.0383372058824
 C1 0.662658 0.780939 0.47076  -0.0383372058824
 C1 0.8084 0.906042 0.70593  -0.0383372058824
 C2 0.752333 0.862443 0.47755  0.231020294118
 C1 0.541651 0.112827 0.30123  -0.0383372058824
 C1 0.780515 0.294413 0.34417  -0.0383372058824
 C1 0.662818 0.219035 0.52926  -0.0383372058824
 C1 0.808419 0.094001 0.29411  -0.0383372058824
 C2 0.752363 0.137536 0.52246  0.231020294118
 C1 0.458234 0.301256 0.11284  -0.0383372058824
 C1 0.219543 0.344175 0.29444  -0.0383372058824
 C1 0.337248 0.529289 0.21903  -0.0383372058824
 C1 0.191515 0.294106 0.0939  -0.0383372058824
 C2 0.247611 0.52243 0.13755  0.231020294118
 C1 0.458382 0.69877 0.88714  -0.0383372058824
 C1 0.219484 0.655791 0.70563  -0.0383372058824
 C1 0.337242 0.470793 0.78092  -0.0383372058824
 C1 0.191651 0.705898 0.90604  -0.0383372058824
 C2 0.247645 0.477532 0.86245  0.231020294118
 C1 0.958248 0.612867 0.19878  -0.0383372058824
 C1 0.71956 0.794388 0.15577  -0.0383372058824
 C1 0.83732 0.719059 0.97076  -0.0383372058824
 C1 0.69156 0.593954 0.20591  -0.0383372058824
 C2 0.747649 0.637552 0.97757  0.231020294118
 C1 0.95837 0.387168 0.80124  -0.0383372058824
 C1 0.719458 0.205608 0.84418  -0.0383372058824
 C1 0.837165 0.280949 0.0292  -0.0383372058824
 C1 0.691594 0.406003 0.79413  -0.0383372058824
 C2 0.747643 0.362467 0.02245  0.231020294118
 C2 8e-06 0.893844 0.33616  0.231020294118
 C2 0.999979 0.106156 0.66386  0.231020294118
 C2 0.500007 0.163846 0.39383  0.231020294118
 C2 0.499982 0.836152 0.60619  0.231020294118
 C2 0.499977 0.606153 0.83617  0.231020294118
 C2 0.500012 0.393845 0.16385  0.231020294118
 C2 0.999981 0.336157 0.89384  0.231020294118
 C2 6e-06 0.663842 0.10617  0.231020294118
 C2 0.822985 0.777145 0.22288  0.231020294118
 C2 0.822995 0.222893 0.77715  0.231020294118
 C2 0.32299 0.277153 0.27711  0.231020294118
 C2 0.322987 0.722893 0.72287  0.231020294118
 C2 0.677 0.722848 0.72290  0.231020294118
 C2 0.677002 0.277105 0.27715  0.231020294118
 C2 0.177003 0.222854 0.77713  0.231020294118
 C2 0.176996 0.777104 0.22286  0.231020294118
 N1 0.93205 0.860249 0.3547  -0.387189705882
 N1 0.785377 0.833007 0.2480  -0.387189705882
 N1 0.798574 0.983953 0.32457  -0.387189705882
 N1 0.748474 0.845925 0.41060  -0.387189705882
 N1 0.932097 0.139781 0.64532  -0.387189705882
 N1 0.785365 0.167011 0.75195  -0.387189705882
 N1 0.798561 0.016078 0.67547  -0.387189705882
 N1 0.748539 0.15407 0.58941  -0.387189705882
 N1 0.432069 0.145336 0.36020  -0.387189705882
 N1 0.285393 0.25194 0.33301  -0.387189705882
 N1 0.298618 0.17545 0.48394  -0.387189705882
 N1 0.248497 0.089413 0.34592  -0.387189705882
 N1 0.432075 0.854736 0.63978  -0.387189705882
 N1 0.285344 0.748083 0.66701  -0.387189705882
 N1 0.298535 0.824581 0.51607  -0.387189705882
 N1 0.248521 0.910617 0.65409  -0.387189705882
 N1 0.567932 0.639746 0.85472  -0.387189705882
 N1 0.714613 0.666988 0.74808  -0.387189705882
 N1 0.701423 0.516046 0.82459  -0.387189705882
 N1 0.751504 0.654073 0.91062  -0.387189705882
 N1 0.567901 0.360217 0.1453  -0.387189705882
 N1 0.71462 0.332996 0.25194  -0.387189705882
 N1 0.701423 0.483924 0.1754  -0.387189705882
 N1 0.751463 0.34593 0.08940  -0.387189705882
 N1 0.06793 0.354668 0.86022  -0.387189705882
 N1 0.214598 0.248062 0.83302  -0.387189705882
 N1 0.201372 0.324561 0.98396  -0.387189705882
 N1 0.251501 0.41059 0.84593  -0.387189705882
 N1 0.067902 0.645264 0.13978  -0.387189705882
 N1 0.21464 0.751911 0.1670  -0.387189705882
 N1 0.201449 0.675416 0.01606  -0.387189705882
 N1 0.25145 0.589378 0.15408  -0.387189705882
 N1 0.067939 0.13975 0.64531  -0.387189705882
 N1 0.214611 0.166991 0.75195  -0.387189705882
 N1 0.201413 0.016046 0.67544  -0.387189705882
 N1 0.251514 0.154076 0.58941  -0.387189705882
 N1 0.067892 0.860218 0.354  -0.387189705882
 N1 0.214622 0.83299 0.2480  -0.387189705882
 N1 0.201428 0.983921 0.32454  -0.387189705882
 N1 0.251449 0.845927 0.4106  -0.387189705882
 N1 0.56792 0.854665 0.63981  -0.387189705882
 N1 0.714593 0.748058 0.6670  -0.387189705882
 N1 0.70137 0.82455 0.51607  -0.387189705882
 N1 0.751492 0.910586 0.65409  -0.387189705882
 N1 0.567914 0.145265 0.36023  -0.387189705882
 N1 0.714644 0.251917 0.33300  -0.387189705882
 N1 0.701453 0.175416 0.4839  -0.387189705882
 N1 0.751466 0.089382 0.34592  -0.387189705882
 N1 0.432057 0.360254 0.14529  -0.387189705882
 N1 0.285374 0.33301 0.25193  -0.387189705882
 N1 0.298565 0.483953 0.17543  -0.387189705882
 N1 0.248484 0.345928 0.08939  -0.387189705882
 N1 0.432088 0.639783 0.854  -0.387189705882
 N1 0.285367 0.667004 0.74807  -0.387189705882
 N1 0.298564 0.516076 0.8245  -0.387189705882
 N1 0.248526 0.654068 0.91061  -0.387189705882
 N1 0.932059 0.645329 0.13979  -0.387189705882
 N1 0.785391 0.751936 0.16699  -0.387189705882
 N1 0.798616 0.675441 0.01605  -0.387189705882
 N1 0.748486 0.589409 0.15408  -0.387189705882
 N1 0.932087 0.354733 0.8602  -0.387189705882
 N1 0.785346 0.248089 0.83301  -0.387189705882
 N1 0.798539 0.324582 0.98395  -0.387189705882
 N1 0.748539 0.410622 0.8459  -0.387189705882
