#======================================================================

# CRYSTAL DATA

#----------------------------------------------------------------------

data_VESTA_phase_1


_pd_phase_name                         MOF
_cell_length_a                         22.95800
_cell_length_b                         12.51500
_cell_length_c                         14.85200
_cell_angle_alpha                      90.00000
_cell_angle_beta                       90.00000
_cell_angle_gamma                      90.00000
_symmetry_space_group_name_H-M         "P 1"
_symmetry_Int_Tables_number            1

loop_
_symmetry_equiv_pos_as_xyz
   "x, y, z"

loop_
   _atom_site_label
   _atom_site_fract_x
   _atom_site_fract_y
   _atom_site_fract_z
 _atom_site_charge
 Zn1 0.249994 1e-06 0.74998  0.853113114754
 Zn1 0.749985 1e-06 0.74998  0.853113114754
 Zn1 0.249995 0.0 0.24999  0.853113114754
 Zn1 0.749986 0.0 0.24999  0.853113114754
 H1 0.339563 0.709397 0.85455  0.106904677254
 H1 0.839553 0.709396 0.85455  0.106904677254
 H1 0.413549 0.568533 0.85434  0.106904677254
 H1 0.913539 0.568532 0.85434  0.106904677254
 H1 0.349578 0.840876 0.71273  0.106904677254
 H1 0.849569 0.840875 0.71273  0.106904677254
 H1 0.457433 0.832457 0.71213  0.106904677254
 H1 0.957423 0.832459 0.71212  0.106904677254
 H1 0.160424 0.290637 0.85455  0.106904677254
 H1 0.660415 0.290638 0.85455  0.106904677254
 H1 0.086438 0.431502 0.85434  0.106904677254
 H1 0.586429 0.431502 0.85434  0.106904677254
 H1 0.150411 0.159162 0.71273  0.106904677254
 H1 0.650401 0.159162 0.71273  0.106904677254
 H1 0.042556 0.167582 0.71213  0.106904677254
 H1 0.542546 0.16758 0.71213  0.106904677254
 H1 0.160427 0.70939 0.64542  0.106904677254
 H1 0.660417 0.709392 0.64542  0.106904677254
 H1 0.08644 0.568527 0.64563  0.106904677254
 H1 0.586431 0.568528 0.64563  0.106904677254
 H1 0.150408 0.840875 0.78724  0.106904677254
 H1 0.6504 0.840875 0.78724  0.106904677254
 H1 0.042554 0.832459 0.78785  0.106904677254
 H1 0.542545 0.832457 0.7878  0.106904677254
 H1 0.339561 0.290644 0.64542  0.106904677254
 H1 0.839552 0.290644 0.64542  0.106904677254
 H1 0.413548 0.431507 0.64563  0.106904677254
 H1 0.913539 0.431507 0.64563  0.106904677254
 H1 0.349578 0.159163 0.78724  0.106904677254
 H1 0.849569 0.159162 0.78724  0.106904677254
 H1 0.457433 0.16758 0.78785  0.106904677254
 H1 0.957424 0.167582 0.78784  0.106904677254
 H1 0.160425 0.290637 0.14543  0.106904677254
 H1 0.660416 0.290638 0.14543  0.106904677254
 H1 0.086439 0.431501 0.14564  0.106904677254
 H1 0.58643 0.431502 0.14564  0.106904677254
 H1 0.150411 0.159161 0.28725  0.106904677254
 H1 0.650402 0.159162 0.28724  0.106904677254
 H1 0.042556 0.16758 0.28785  0.106904677254
 H1 0.542547 0.16758 0.28785  0.106904677254
 H1 0.339564 0.709396 0.14543  0.106904677254
 H1 0.839554 0.709396 0.14543  0.106904677254
 H1 0.41355 0.568532 0.14564  0.106904677254
 H1 0.913541 0.568531 0.14564  0.106904677254
 H1 0.349579 0.840876 0.28725  0.106904677254
 H1 0.849569 0.840874 0.28724  0.106904677254
 H1 0.457434 0.832457 0.28785  0.106904677254
 H1 0.957424 0.832457 0.28785  0.106904677254
 H1 0.339562 0.290643 0.35456  0.106904677254
 H1 0.839553 0.290643 0.35456  0.106904677254
 H1 0.413548 0.431506 0.35434  0.106904677254
 H1 0.913539 0.431506 0.35434  0.106904677254
 H1 0.349579 0.159163 0.21274  0.106904677254
 H1 0.84957 0.159161 0.2127  0.106904677254
 H1 0.457433 0.16758 0.21213  0.106904677254
 H1 0.957425 0.167581 0.21213  0.106904677254
 H1 0.160427 0.70939 0.35456  0.106904677254
 H1 0.660418 0.709391 0.35456  0.106904677254
 H1 0.08644 0.568527 0.35434  0.106904677254
 H1 0.586431 0.568528 0.35434  0.106904677254
 H1 0.150409 0.840874 0.21274  0.106904677254
 H1 0.6504 0.840875 0.21273  0.106904677254
 H1 0.042555 0.832457 0.21213  0.106904677254
 H1 0.542545 0.832457 0.21213  0.106904677254
 C1 0.267102 0.845212 0.92020  0.363008114754
 C1 0.767092 0.845211 0.92020  0.363008114754
 C2 0.355818 0.679027 0.91855  -0.140793135246
 C2 0.855809 0.679027 0.91855  -0.140793135246
 C2 0.397622 0.599053 0.91850  -0.140793135246
 C2 0.897613 0.599052 0.91850  -0.140793135246
 C1 0.462305 0.404466 0.92017  0.363008114754
 C1 0.962295 0.404466 0.92017  0.363008114754
 C3 0.375495 0.910914 0.7299  0.160473114754
 C3 0.875486 0.910912 0.72999  0.160473114754
 C2 0.435974 0.907219 0.72972  -0.140793135246
 C2 0.935965 0.907222 0.72971  -0.140793135246
 C1 0.232886 0.154824 0.92020  0.363008114754
 C1 0.732877 0.154824 0.92020  0.363008114754
 C2 0.144169 0.321007 0.91855  -0.140793135246
 C2 0.644159 0.321007 0.91855  -0.140793135246
 C2 0.102364 0.400981 0.91850  -0.140793135246
 C2 0.602355 0.400982 0.91850  -0.140793135246
 C1 0.037682 0.595569 0.92017  0.363008114754
 C1 0.537673 0.595569 0.92017  0.363008114754
 C3 0.124494 0.089124 0.72999  0.160473114754
 C3 0.624484 0.089125 0.72999  0.160473114754
 C2 0.064015 0.09282 0.72972  -0.140793135246
 C2 0.564005 0.092817 0.7297  -0.140793135246
 C1 0.232886 0.845209 0.57976  0.363008114754
 C1 0.732877 0.84521 0.57976  0.363008114754
 C2 0.144171 0.679021 0.58142  -0.140793135246
 C2 0.644162 0.679022 0.58142  -0.140793135246
 C2 0.102367 0.599047 0.58147  -0.140793135246
 C2 0.602357 0.599048 0.58147  -0.140793135246
 C1 0.037681 0.404464 0.57980  0.363008114754
 C1 0.537672 0.404464 0.57980  0.363008114754
 C3 0.124492 0.910912 0.76998  0.160473114754
 C3 0.624483 0.910913 0.7699  0.160473114754
 C2 0.064012 0.907222 0.77026  -0.140793135246
 C2 0.564004 0.907219 0.7702  -0.140793135246
 C1 0.267102 0.154826 0.57976  0.363008114754
 C1 0.767093 0.154826 0.57976  0.363008114754
 C2 0.355817 0.321013 0.58142  -0.140793135246
 C2 0.855808 0.321013 0.58142  -0.140793135246
 C2 0.397622 0.400987 0.58147  -0.140793135246
 C2 0.897612 0.400987 0.58147  -0.140793135246
 C1 0.462306 0.595571 0.579  0.363008114754
 C1 0.962297 0.595571 0.579  0.363008114754
 C3 0.375496 0.089125 0.76998  0.160473114754
 C3 0.875486 0.089123 0.76998  0.160473114754
 C2 0.435975 0.092817 0.77026  -0.140793135246
 C2 0.935965 0.09282 0.77025  -0.140793135246
 C1 0.232887 0.154824 0.07977  0.363008114754
 C1 0.732878 0.154824 0.07977  0.363008114754
 C2 0.14417 0.321007 0.08143  -0.140793135246
 C2 0.644161 0.321007 0.08143  -0.140793135246
 C2 0.102366 0.400981 0.0814  -0.140793135246
 C2 0.602357 0.400982 0.0814  -0.140793135246
 C1 0.037684 0.595568 0.07980  0.363008114754
 C1 0.537675 0.595569 0.07980  0.363008114754
 C3 0.124494 0.089123 0.26999  0.160473114754
 C3 0.624485 0.089125 0.26998  0.160473114754
 C2 0.064015 0.092818 0.27026  -0.140793135246
 C2 0.564005 0.092816 0.27026  -0.140793135246
 C1 0.267103 0.845211 0.07977  0.363008114754
 C1 0.767093 0.845211 0.07977  0.363008114754
 C2 0.355819 0.679027 0.08143  -0.140793135246
 C2 0.85581 0.679026 0.08143  -0.140793135246
 C2 0.397624 0.599053 0.0814  -0.140793135246
 C2 0.897614 0.599052 0.0814  -0.140793135246
 C1 0.462306 0.404466 0.07980  0.363008114754
 C1 0.962297 0.404465 0.07980  0.363008114754
 C3 0.375495 0.910914 0.26999  0.160473114754
 C3 0.875486 0.910912 0.26999  0.160473114754
 C2 0.435974 0.907219 0.27026  -0.140793135246
 C2 0.935965 0.90722 0.27026  -0.140793135246
 C1 0.267102 0.154826 0.42021  0.363008114754
 C1 0.767093 0.154825 0.42021  0.363008114754
 C2 0.355817 0.321012 0.4185  -0.140793135246
 C2 0.855808 0.321012 0.4185  -0.140793135246
 C2 0.397622 0.400986 0.41851  -0.140793135246
 C2 0.897613 0.400986 0.41851  -0.140793135246
 C1 0.462306 0.595571 0.42018  0.363008114754
 C1 0.962298 0.59557 0.42018  0.363008114754
 C3 0.375496 0.089126 0.23000  0.160473114754
 C3 0.875487 0.089123 0.22999  0.160473114754
 C2 0.435975 0.092816 0.22972  -0.140793135246
 C2 0.935966 0.092818 0.22972  -0.140793135246
 C1 0.232886 0.845209 0.42021  0.363008114754
 C1 0.732877 0.845209 0.42021  0.363008114754
 C2 0.144172 0.679021 0.4185  -0.140793135246
 C2 0.644162 0.679022 0.4185  -0.140793135246
 C2 0.102367 0.599047 0.41851  -0.140793135246
 C2 0.602357 0.599048 0.41851  -0.140793135246
 C1 0.037682 0.404464 0.42018  0.363008114754
 C1 0.537672 0.404464 0.42018  0.363008114754
 C3 0.124492 0.910912 0.22999  0.160473114754
 C3 0.624484 0.910914 0.22999  0.160473114754
 C2 0.064013 0.90722 0.22972  -0.140793135246
 C2 0.564004 0.907219 0.22972  -0.140793135246
 C4 0.467768 3e-06 0.74998  -0.0564656352459
 C4 0.967759 1e-06 0.74999  -0.0564656352459
 C4 0.03222 1e-06 0.74998  -0.0564656352459
 C4 0.532211 3e-06 0.74999  -0.0564656352459
 C4 0.032221 1e-06 0.2  -0.0564656352459
 C4 0.532212 4e-06 0.24998  -0.0564656352459
 C4 0.467769 4e-06 0.25000  -0.0564656352459
 C4 0.96776 1e-06 0.24999  -0.0564656352459
 C4 0.289265 0.80385 0.  -0.0564656352459
 C4 0.789255 0.803849 0.  -0.0564656352459
 C4 0.333776 0.720796 0.99998  -0.0564656352459
 C4 0.833767 0.720796 0.99998  -0.0564656352459
 C4 0.419018 0.558078 0.  -0.0564656352459
 C4 0.919008 0.558077 0.99998  -0.0564656352459
 C5 0.466564 0.473155 0.99998  0.0140131147541
 C5 0.966556 0.473155 0.  0.0140131147541
 C4 0.210725 0.196184 0.  -0.0564656352459
 C4 0.710716 0.196185 0.  -0.0564656352459
 C4 0.166212 0.279238 0.  -0.0564656352459
 C4 0.666203 0.279238 0.  -0.0564656352459
 C4 0.080971 0.441956 0.  -0.0564656352459
 C4 0.580961 0.441957 0.99998  -0.0564656352459
 C5 0.033424 0.526879 0.  0.0140131147541
 C5 0.533415 0.52688 0.  0.0140131147541
 C4 0.210725 0.803845 0.49999  -0.0564656352459
 C4 0.710716 0.803846 0.49999  -0.0564656352459
 C4 0.166213 0.72079 0.49999  -0.0564656352459
 C4 0.666204 0.720792 0.49999  -0.0564656352459
 C4 0.080972 0.558073 0.49999  -0.0564656352459
 C4 0.580962 0.558074 0.49999  -0.0564656352459
 C5 0.033423 0.473153 0.49999  0.0140131147541
 C5 0.533414 0.473154 0.49999  0.0140131147541
 C4 0.289263 0.196188 0.49999  -0.0564656352459
 C4 0.789254 0.196188 0.49999  -0.0564656352459
 C4 0.333775 0.279243 0.49999  -0.0564656352459
 C4 0.833766 0.279243 0.49999  -0.0564656352459
 C4 0.419017 0.441961 0.49999  -0.0564656352459
 C4 0.919008 0.441961 0.49999  -0.0564656352459
 C5 0.466565 0.526881 0.49999  0.0140131147541
 C5 0.966556 0.526881 0.49999  0.0140131147541
 N1 0.248387 0.877822 0.8517  -0.498266885246
 N1 0.748377 0.877821 0.85170  -0.498266885246
 N2 0.457775 0.351581 0.85596  -0.347436885246
 N2 0.957766 0.351581 0.85596  -0.347436885246
 N1 0.251601 0.122214 0.8517  -0.498266885246
 N1 0.751592 0.122214 0.85170  -0.498266885246
 N2 0.042211 0.648454 0.8559  -0.347436885246
 N2 0.542202 0.648454 0.8559  -0.347436885246
 N1 0.2516 0.877821 0.64826  -0.498266885246
 N1 0.751591 0.877822 0.64826  -0.498266885246
 N2 0.04221 0.351579 0.64400  -0.347436885246
 N2 0.542201 0.35158 0.64400  -0.347436885246
 N1 0.248387 0.122214 0.64826  -0.498266885246
 N1 0.748378 0.122213 0.64826  -0.498266885246
 N2 0.457778 0.648456 0.64400  -0.347436885246
 N2 0.957769 0.648456 0.64400  -0.347436885246
 N1 0.251602 0.122213 0.14827  -0.498266885246
 N1 0.751593 0.122214 0.14827  -0.498266885246
 N2 0.042213 0.648453 0.14401  -0.347436885246
 N2 0.542204 0.648454 0.14401  -0.347436885246
 N1 0.248388 0.877822 0.14827  -0.498266885246
 N1 0.748378 0.877821 0.14827  -0.498266885246
 N2 0.457777 0.351581 0.14401  -0.347436885246
 N2 0.957767 0.351581 0.14401  -0.347436885246
 N1 0.248387 0.122214 0.35171  -0.498266885246
 N1 0.748379 0.122213 0.35171  -0.498266885246
 N2 0.457778 0.648456 0.35597  -0.347436885246
 N2 0.957769 0.648455 0.35597  -0.347436885246
 N1 0.251601 0.877821 0.35171  -0.498266885246
 N1 0.751591 0.877821 0.35171  -0.498266885246
 N2 0.04221 0.351578 0.35597  -0.347436885246
 N2 0.542201 0.351579 0.35597  -0.347436885246
 N3 0.345194 0.999999 0.74999  -0.306756885246
 N3 0.845185 5e-06 0.74997  -0.306756885246
 N3 0.154795 4e-06 0.7  -0.306756885246
 N3 0.654786 0.999999 0.74998  -0.306756885246
 N3 0.154796 2e-06 0.2499  -0.306756885246
 N3 0.654786 0.999998 0.25000  -0.306756885246
 N3 0.345194 0.999998 0.24998  -0.306756885246
 N3 0.845185 3e-06 0.25000  -0.306756885246
