#======================================================================

# CRYSTAL DATA

#----------------------------------------------------------------------

data_VESTA_phase_1


_pd_phase_name                         MOF
_cell_length_a                         21.11000
_cell_length_b                         17.85300
_cell_length_c                         17.85300
_cell_angle_alpha                      119.97700
_cell_angle_beta                       89.99500
_cell_angle_gamma                      89.96200
_symmetry_space_group_name_H-M         "P 1"
_symmetry_Int_Tables_number            1

loop_
_symmetry_equiv_pos_as_xyz
   "x, y, z"

loop_
   _atom_site_label
   _atom_site_fract_x
   _atom_site_fract_y
   _atom_site_fract_z
 _atom_site_charge
 Zn1 0.441781 0.547253 0.0778  0.778224270833
 Zn1 0.941769 0.5473 0.07787  0.778224270833
 Zn1 0.275159 0.530682 0.45270  0.778224270833
 Zn1 0.775148 0.530745 0.45275  0.778224270833
 Zn1 0.108499 0.92225 0.46953  0.778224270833
 Zn1 0.608487 0.922258 0.46957  0.778224270833
 Zn1 0.191835 0.452652 0.92205  0.778224270833
 Zn1 0.691825 0.452657 0.92207  0.778224270833
 Zn1 0.025147 0.469377 0.54718  0.778224270833
 Zn1 0.525132 0.469371 0.54719  0.778224270833
 Zn1 0.358468 0.077855 0.53059  0.778224270833
 Zn1 0.858453 0.077871 0.53060  0.778224270833
 H1 0.493891 0.477229 0.92913  0.267917604167
 H1 0.993884 0.477276 0.92913  0.267917604167
 H2 0.095372 0.489736 0.70249  0.100931056548
 H2 0.595352 0.489696 0.70248  0.100931056548
 H2 0.414031 0.553504 0.66569  0.100931056548
 H2 0.914022 0.553497 0.66566  0.100931056548
 H2 0.383413 0.601107 0.81827  0.100931056548
 H2 0.883396 0.601115 0.81824  0.100931056548
 H2 0.07338 0.533952 0.85569  0.100931056548
 H2 0.573367 0.533892 0.85568  0.100931056548
 H2 0.496023 0.62754 0.98579  0.100931056548
 H2 0.995996 0.627589 0.9857  0.100931056548
 H2 0.414043 0.62605 0.96154  0.100931056548
 H2 0.914017 0.626076 0.96152  0.100931056548
 H2 0.382289 0.472887 0.84674  0.100931056548
 H2 0.882286 0.472895 0.84672  0.100931056548
 H2 0.372615 0.323223 0.80497  0.100931056548
 H2 0.872632 0.323234 0.80497  0.100931056548
 H2 0.446178 0.24756 0.85137  0.100931056548
 H2 0.946204 0.247614 0.85141  0.100931056548
 H2 0.402069 0.325788 0.94114  0.100931056548
 H2 0.902068 0.325833 0.94116  0.100931056548
 H2 0.481795 0.346994 0.92909  0.100931056548
 H2 0.981793 0.34707 0.92914  0.100931056548
 H2 0.511338 0.36852 0.79327  0.100931056548
 H2 0.0 0.368571 0.79331  0.100931056548
 H2 0.448045 0.368184 0.72760  0.100931056548
 H2 0.948067 0.368195 0.72760  0.100931056548
 H2 0.470546 0.270688 0.72376  0.100931056548
 H2 0.970583 0.270719 0.72379  0.100931056548
 H1 0.327275 0.451829 0.52264  0.267917604167
 H1 0.82726 0.451885 0.52269  0.267917604167
 H2 0.428699 0.212689 0.51019  0.100931056548
 H2 0.928676 0.21273 0.51024  0.100931056548
 H2 0.247411 0.112352 0.44652  0.100931056548
 H2 0.747399 0.112369 0.44650  0.100931056548
 H2 0.216854 0.217337 0.39884  0.100931056548
 H2 0.716852 0.217369 0.39884  0.100931056548
 H2 0.406784 0.321687 0.46591  0.100931056548
 H2 0.90677 0.321744 0.46599  0.100931056548
 H2 0.329517 0.358317 0.37233  0.100931056548
 H2 0.829524 0.358372 0.37238  0.100931056548
 H2 0.247533 0.335626 0.37384  0.100931056548
 H2 0.747539 0.335676 0.37387  0.100931056548
 H2 0.215778 0.37377 0.52709  0.100931056548
 H2 0.715758 0.373808 0.52710  0.100931056548
 H2 0.205933 0.481678 0.67675  0.100931056548
 H2 0.705896 0.481699 0.67677  0.100931056548
 H2 0.279407 0.60376 0.75221  0.100931056548
 H2 0.779364 0.603773 0.75226  0.100931056548
 H2 0.235237 0.615187 0.67396  0.100931056548
 H2 0.735219 0.615218 0.67401  0.100931056548
 H2 0.31499 0.581968 0.65267  0.100931056548
 H2 0.814973 0.581998 0.65274  0.100931056548
 H2 0.344716 0.424707 0.63138  0.100931056548
 H2 0.84468 0.424724 0.63144  0.100931056548
 H2 0.281478 0.359457 0.63196  0.100931056548
 H2 0.781433 0.359469 0.6319  0.100931056548
 H2 0.303912 0.453156 0.72932  0.100931056548
 H2 0.803855 0.453156 0.72935  0.100931056548
 H1 0.160511 0.07095 0.54814  0.267917604167
 H1 0.660506 0.070948 0.5481  0.267917604167
 H2 0.262149 0.297319 0.78711  0.100931056548
 H2 0.762148 0.297305 0.78714  0.100931056548
 H2 0.080893 0.334409 0.8879  0.100931056548
 H2 0.580881 0.33443 0.88792  0.100931056548
 H2 0.050214 0.181925 0.78295  0.100931056548
 H2 0.550198 0.181944 0.78297  0.100931056548
 H2 0.240098 0.144207 0.67809  0.100931056548
 H2 0.740092 0.14419 0.67814  0.100931056548
 H2 0.162764 0.014233 0.64181  0.100931056548
 H2 0.662742 0.014229 0.64185  0.100931056548
 H2 0.080792 0.03865 0.66467  0.100931056548
 H2 0.580771 0.038661 0.66471  0.100931056548
 H2 0.048861 0.153367 0.62617  0.100931056548
 H2 0.548864 0.15339 0.62620  0.100931056548
 H2 0.039111 0.195119 0.51820  0.100931056548
 H2 0.539131 0.195121 0.51821  0.100931056548
 H2 0.112763 0.148684 0.39623  0.100931056548
 H2 0.612792 0.14864 0.39624  0.100931056548
 H2 0.068691 0.058943 0.38471  0.100931056548
 H2 0.568693 0.058925 0.38474  0.100931056548
 H2 0.148397 0.070943 0.41804  0.100931056548
 H2 0.648396 0.070895 0.41807  0.100931056548
 H2 0.177827 0.206802 0.57527  0.100931056548
 H2 0.677842 0.206764 0.57529  0.100931056548
 H2 0.114487 0.272545 0.64049  0.100931056548
 H2 0.614512 0.272538 0.64050  0.100931056548
 H2 0.136994 0.276274 0.546  0.100931056548
 H2 0.637033 0.276238 0.54679  0.100931056548
 H1 0.243851 0.52264 0.07078  0.267917604167
 H1 0.743856 0.522648 0.07078  0.267917604167
 H2 0.345442 0.510189 0.29731  0.100931056548
 H2 0.845448 0.510224 0.29735  0.100931056548
 H2 0.164198 0.446598 0.33439  0.100931056548
 H2 0.664194 0.446656 0.3344  0.100931056548
 H2 0.133558 0.398916 0.1818  0.100931056548
 H2 0.633571 0.398942 0.18183  0.100931056548
 H2 0.323429 0.46593 0.14411  0.100931056548
 H2 0.823454 0.465934 0.14414  0.100931056548
 H2 0.246118 0.372321 0.01413  0.100931056548
 H2 0.746156 0.372339 0.01415  0.100931056548
 H2 0.164149 0.373878 0.03848  0.100931056548
 H2 0.664186 0.373857 0.03849  0.100931056548
 H2 0.132252 0.527108 0.15325  0.100931056548
 H2 0.632276 0.527094 0.15328  0.100931056548
 H2 0.122458 0.676774 0.19486  0.100931056548
 H2 0.622454 0.676754 0.1948  0.100931056548
 H2 0.196065 0.752204 0.14828  0.100931056548
 H2 0.696031 0.752199 0.14829  0.100931056548
 H2 0.151957 0.674007 0.05861  0.100931056548
 H2 0.651916 0.673994 0.05863  0.100931056548
 H2 0.231678 0.652649 0.07060  0.100931056548
 H2 0.731646 0.652651 0.07060  0.100931056548
 H2 0.261182 0.631304 0.20657  0.100931056548
 H2 0.761192 0.63131 0.20656  0.100931056548
 H2 0.197858 0.631861 0.27232  0.100931056548
 H2 0.697886 0.631859 0.27233  0.100931056548
 H2 0.220362 0.729248 0.27602  0.100931056548
 H2 0.72037 0.729248 0.27601  0.100931056548
 H1 0.077237 0.548144 0.47718  0.267917604167
 H1 0.577211 0.548143 0.47718  0.267917604167
 H2 0.178753 0.787141 0.48978  0.100931056548
 H2 0.678724 0.78713 0.48980  0.100931056548
 H2 0.997478 0.887963 0.55362  0.100931056548
 H2 0.497459 0.887987 0.55366  0.100931056548
 H2 0.46676 0.782914 0.60112  0.100931056548
 H2 0.96677 0.782903 0.60110  0.100931056548
 H2 0.156693 0.678032 0.53383  0.100931056548
 H2 0.656649 0.678009 0.53383  0.100931056548
 H2 0.079335 0.641656 0.62754  0.100931056548
 H2 0.579279 0.641655 0.62755  0.100931056548
 H2 0.997359 0.664458 0.62594  0.100931056548
 H2 0.497303 0.664439 0.6259  0.100931056548
 H2 0.465606 0.626247 0.4728  0.100931056548
 H2 0.965626 0.626289 0.47283  0.100931056548
 H2 0.455902 0.518416 0.32312  0.100931056548
 H2 0.955895 0.518468 0.32315  0.100931056548
 H2 0.029523 0.39642 0.24756  0.100931056548
 H2 0.529539 0.396406 0.24756  0.100931056548
 H2 0.485432 0.384853 0.32578  0.100931056548
 H2 0.985389 0.384887 0.32579  0.100931056548
 H2 0.065127 0.41812 0.34704  0.100931056548
 H2 0.565139 0.418125 0.34705  0.100931056548
 H2 0.09464 0.575395 0.36846  0.100931056548
 H2 0.594609 0.575412 0.36847  0.100931056548
 H2 0.031331 0.64071 0.36801  0.100931056548
 H2 0.531282 0.640697 0.36800  0.100931056548
 H2 0.053845 0.547047 0.27058  0.100931056548
 H2 0.553817 0.547047 0.27058  0.100931056548
 H1 0.410597 0.929118 0.45189  0.267917604167
 H1 0.910573 0.929127 0.45188  0.267917604167
 H2 0.012019 0.702393 0.21261  0.100931056548
 H2 0.512025 0.702359 0.21260  0.100931056548
 H2 0.330664 0.665869 0.11240  0.100931056548
 H2 0.830648 0.665898 0.11237  0.100931056548
 H2 0.300138 0.818491 0.2173  0.100931056548
 H2 0.800109 0.818513 0.21737  0.100931056548
 H2 0.490147 0.855584 0.32159  0.100931056548
 H2 0.990104 0.85561 0.32161  0.100931056548
 H2 0.412868 0.985813 0.35826  0.100931056548
 H2 0.912813 0.985835 0.35826  0.100931056548
 H2 0.330877 0.96171 0.33553  0.100931056548
 H2 0.830824 0.961714 0.33555  0.100931056548
 H2 0.299036 0.846768 0.37389  0.100931056548
 H2 0.798999 0.846787 0.37392  0.100931056548
 H2 0.289302 0.804926 0.48175  0.100931056548
 H2 0.789289 0.804953 0.48180  0.100931056548
 H2 0.362765 0.851347 0.60382  0.100931056548
 H2 0.862782 0.851361 0.60383  0.100931056548
 H2 0.318617 0.941089 0.61530  0.100931056548
 H2 0.818636 0.94111 0.61533  0.100931056548
 H2 0.39837 0.929122 0.58210  0.100931056548
 H2 0.898381 0.929125 0.58209  0.100931056548
 H2 0.428082 0.793326 0.42486  0.100931056548
 H2 0.928055 0.793317 0.42484  0.100931056548
 H2 0.36486 0.727587 0.35954  0.100931056548
 H2 0.864819 0.727593 0.35955  0.100931056548
 H2 0.387279 0.723806 0.45323  0.100931056548
 H2 0.887257 0.723808 0.45323  0.100931056548
 C1 0.048978 0.514021 0.73084  0.172759270833
 C1 0.548961 0.513984 0.73084  0.172759270833
 C1 0.447433 0.550475 0.71048  0.172759270833
 C1 0.947423 0.550482 0.71046  0.172759270833
 C2 0.431023 0.576566 0.79548  -0.2057790625
 C2 0.931009 0.576582 0.79546  -0.2057790625
 C3 0.475423 0.569689 0.84992  0.114547604167
 C3 0.97541 0.569725 0.84991  0.114547604167
 C2 0.035906 0.539038 0.81636  -0.2057790625
 C2 0.535892 0.538992 0.8163  -0.2057790625
 C4 0.45848 0.589188 0.93995  -0.0258890625
 C4 0.958459 0.589226 0.93994  -0.0258890625
 C5 0.339338 0.464776 0.9490  0.645124270833
 C5 0.839331 0.464799 0.94904  0.645124270833
 C6 0.398046 0.452425 0.89267  -0.0863557291667
 C6 0.898042 0.45245 0.89266  -0.0863557291667
 C7 0.416613 0.356175 0.83778  0.0862842708333
 C7 0.916623 0.356203 0.83779  0.0862842708333
 C8 0.43801 0.317288 0.89301  -0.355243229167
 C8 0.938018 0.31734 0.89305  -0.355243229167
 C8 0.464558 0.340574 0.76710  -0.355243229167
 C8 0.964579 0.340604 0.7671  -0.355243229167
 C1 0.382328 0.216832 0.48592  0.172759270833
 C1 0.882311 0.216871 0.48597  0.172759270833
 C1 0.280818 0.160127 0.4495  0.172759270833
 C1 0.780807 0.160151 0.44951  0.172759270833
 C2 0.26445 0.219003 0.42334  -0.2057790625
 C2 0.764443 0.21904 0.4233  -0.2057790625
 C3 0.308856 0.280262 0.4301  0.114547604167
 C3 0.808848 0.280309 0.43022  0.114547604167
 C2 0.369306 0.27731 0.46084  -0.2057790625
 C2 0.869291 0.277363 0.46090  -0.2057790625
 C4 0.291945 0.35081 0.41068  -0.0258890625
 C4 0.791944 0.350863 0.41072  -0.0258890625
 C5 0.172672 0.484113 0.53513  0.645124270833
 C5 0.672657 0.484159 0.5351  0.645124270833
 C6 0.231433 0.440157 0.54750  -0.0863557291667
 C6 0.731415 0.440198 0.5475  -0.0863557291667
 C7 0.249933 0.48153 0.64375  0.0862842708333
 C7 0.749903 0.481554 0.64378  0.0862842708333
 C8 0.271234 0.575617 0.68248  -0.355243229167
 C8 0.771207 0.575642 0.68254  -0.355243229167
 C8 0.297939 0.426538 0.65942  -0.355243229167
 C8 0.797896 0.426551 0.65945  -0.355243229167
 C1 0.215752 0.269052 0.78305  0.172759270833
 C1 0.715748 0.269043 0.78309  0.172759270833
 C1 0.114254 0.289565 0.84002  0.172759270833
 C1 0.614244 0.289576 0.84004  0.172759270833
 C2 0.097822 0.204623 0.78116  -0.2057790625
 C2 0.597808 0.204635 0.78118  -0.2057790625
 C3 0.142179 0.150149 0.71976  0.114547604167
 C3 0.642168 0.150148 0.71980  0.114547604167
 C2 0.202656 0.183579 0.7225  -0.2057790625
 C2 0.702649 0.18357 0.72262  -0.2057790625
 C4 0.125212 0.060149 0.6493  -0.0258890625
 C4 0.625195 0.060151 0.6493  -0.0258890625
 C5 0.005975 0.051055 0.51581  0.645124270833
 C5 0.505969 0.051072 0.51585  0.645124270833
 C6 0.064642 0.10743 0.5598  -0.0863557291667
 C6 0.56464 0.107439 0.55984  -0.0863557291667
 C7 0.083137 0.162311 0.51840  0.0862842708333
 C7 0.583149 0.1623 0.51842  0.0862842708333
 C8 0.104595 0.107046 0.42434  -0.355243229167
 C8 0.604606 0.107016 0.42436  -0.355243229167
 C8 0.131031 0.232979 0.57342  -0.355243229167
 C8 0.631055 0.232956 0.57343  -0.355243229167
 C1 0.29906 0.485939 0.26901  0.172759270833
 C1 0.799069 0.485969 0.2690  0.172759270833
 C1 0.197571 0.449563 0.28952  0.172759270833
 C1 0.697573 0.449608 0.28955  0.172759270833
 C2 0.181152 0.423428 0.20454  -0.2057790625
 C2 0.681164 0.423455 0.20456  -0.2057790625
 C3 0.225521 0.430239 0.15003  0.114547604167
 C3 0.725542 0.430249 0.15005  0.114547604167
 C2 0.285978 0.46089 0.18350  -0.2057790625
 C2 0.785996 0.460903 0.18353  -0.2057790625
 C4 0.208556 0.410711 0.06001  -0.0258890625
 C4 0.708584 0.410711 0.06002  -0.0258890625
 C5 0.089299 0.53517 0.0509  0.645124270833
 C5 0.589293 0.535135 0.05094  0.645124270833
 C6 0.147988 0.5475 0.10726  -0.0863557291667
 C6 0.647994 0.547485 0.10729  -0.0863557291667
 C7 0.16648 0.643745 0.16206  0.0862842708333
 C7 0.666475 0.643735 0.16207  0.0862842708333
 C8 0.187892 0.682487 0.10671  -0.355243229167
 C8 0.687862 0.68248 0.10672  -0.355243229167
 C8 0.214393 0.659362 0.23274  -0.355243229167
 C8 0.714404 0.659361 0.23274  -0.355243229167
 C1 0.132351 0.783088 0.51403  0.172759270833
 C1 0.632322 0.783084 0.51405  0.172759270833
 C1 0.030848 0.840059 0.55055  0.172759270833
 C1 0.530824 0.840074 0.55058  0.172759270833
 C2 0.014411 0.78114 0.57660  -0.2057790625
 C2 0.514377 0.781142 0.57662  -0.2057790625
 C3 0.058778 0.719725 0.56965  0.114547604167
 C3 0.558738 0.719718 0.56966  0.114547604167
 C2 0.119254 0.722553 0.53899  -0.2057790625
 C2 0.619214 0.722536 0.53899  -0.2057790625
 C4 0.041817 0.649203 0.58914  -0.0258890625
 C4 0.54177 0.649191 0.58914  -0.0258890625
 C5 0.422656 0.515877 0.46472  0.645124270833
 C5 0.922649 0.515944 0.46476  0.645124270833
 C6 0.481358 0.559852 0.45235  -0.0863557291667
 C6 0.981363 0.559887 0.45236  -0.0863557291667
 C7 0.499909 0.518559 0.35610  0.0862842708333
 C7 0.999902 0.518587 0.35611  0.0862842708333
 C8 0.021343 0.424493 0.31729  -0.355243229167
 C8 0.521352 0.424476 0.31728  -0.355243229167
 C8 0.047859 0.573616 0.34048  -0.355243229167
 C8 0.547826 0.57361 0.34047  -0.355243229167
 C1 0.465646 0.730798 0.21678  0.172759270833
 C1 0.965618 0.730831 0.21678  0.172759270833
 C1 0.364094 0.7106 0.16015  0.172759270833
 C1 0.864073 0.71063 0.16013  0.172759270833
 C2 0.347743 0.795622 0.21902  -0.2057790625
 C2 0.847711 0.795643 0.21902  -0.2057790625
 C3 0.392172 0.84997 0.28026  0.114547604167
 C3 0.892135 0.849992 0.28026  0.114547604167
 C2 0.452641 0.816338 0.27725  -0.2057790625
 C2 0.952602 0.81636 0.27727  -0.2057790625
 C4 0.375278 0.940018 0.35076  -0.0258890625
 C4 0.875233 0.940032 0.3507  -0.0258890625
 C5 0.256021 0.949067 0.48427  0.645124270833
 C5 0.756006 0.949094 0.48432  0.645124270833
 C6 0.314756 0.892687 0.44025  -0.0863557291667
 C6 0.814731 0.892704 0.44028  -0.0863557291667
 C7 0.333292 0.837768 0.48162  0.0862842708333
 C7 0.833279 0.837785 0.48164  0.0862842708333
 C8 0.354603 0.893002 0.57572  -0.355243229167
 C8 0.854613 0.893015 0.57573  -0.355243229167
 C8 0.381306 0.76713 0.42663  -0.355243229167
 C8 0.881278 0.767133 0.42664  -0.355243229167
 N1 0.005229 0.518435 0.67771  -0.3185590625
 N1 0.505213 0.51842 0.67772  -0.3185590625
 N2 0.450892 0.509169 0.94575  -0.377822395833
 N2 0.950881 0.509207 0.94574  -0.377822395833
 N1 0.338574 0.159339 0.48153  -0.3185590625
 N1 0.838557 0.159366 0.48155  -0.3185590625
 N2 0.284293 0.436556 0.49073  -0.377822395833
 N2 0.784282 0.436608 0.49077  -0.377822395833
 N1 0.172032 0.322213 0.84067  -0.3185590625
 N1 0.672025 0.322216 0.84069  -0.3185590625
 N2 0.117549 0.054355 0.56352  -0.377822395833
 N2 0.61754 0.054359 0.56356  -0.377822395833
 N1 0.255331 0.481584 0.32220  -0.3185590625
 N1 0.755332 0.481629 0.32224  -0.3185590625
 N2 0.200883 0.490716 0.05418  -0.377822395833
 N2 0.700892 0.490714 0.05419  -0.377822395833
 N1 0.088634 0.840746 0.51853  -0.3185590625
 N1 0.58861 0.840752 0.51856  -0.3185590625
 N2 0.034241 0.563461 0.5091  -0.377822395833
 N2 0.534212 0.563445 0.50910  -0.377822395833
 N1 0.421866 0.677754 0.15933  -0.3185590625
 N1 0.921843 0.677787 0.15932  -0.3185590625
 N2 0.367617 0.945754 0.43655  -0.377822395833
 N2 0.86759 0.945767 0.43656  -0.377822395833
 Cl1 0.448732 0.461619 0.13519  -0.5528790625
 Cl1 0.948754 0.461688 0.13520  -0.5528790625
 Cl1 0.281965 0.673583 0.53820  -0.5528790625
 Cl1 0.781927 0.673643 0.53827  -0.5528790625
 Cl1 0.115405 0.86493 0.32660  -0.5528790625
 Cl1 0.615417 0.864918 0.32665  -0.5528790625
 Cl1 0.198696 0.538148 0.86459  -0.5528790625
 Cl1 0.69866 0.538166 0.86462  -0.5528790625
 Cl1 0.031996 0.326473 0.4615  -0.5528790625
 Cl1 0.532008 0.326468 0.46159  -0.5528790625
 Cl1 0.365415 0.135119 0.673  -0.5528790625
 Cl1 0.865429 0.135148 0.67350  -0.5528790625
 O1 0.341368 0.518891 0.03002  -0.583550729167
 O1 0.841358 0.51891 0.0300  -0.583550729167
 O1 0.291808 0.419373 0.90874  -0.583550729167
 O1 0.791802 0.419397 0.90871  -0.583550729167
 O1 0.174737 0.511166 0.48115  -0.583550729167
 O1 0.674724 0.511204 0.48117  -0.583550729167
 O1 0.125091 0.488962 0.58042  -0.583550729167
 O1 0.625075 0.489015 0.58045  -0.583550729167
 O1 0.008095 0.970121 0.48901  -0.583550729167
 O1 0.508086 0.970136 0.48904  -0.583550729167
 O1 0.458396 0.091402 0.51075  -0.583550729167
 O1 0.958379 0.091374 0.51069  -0.583550729167
 O1 0.091399 0.481097 0.96993  -0.583550729167
 O1 0.591391 0.481082 0.9699  -0.583550729167
 O1 0.041724 0.580584 0.09125  -0.583550729167
 O1 0.541711 0.580517 0.09130  -0.583550729167
 O1 0.424723 0.488976 0.51882  -0.583550729167
 O1 0.924715 0.489016 0.51883  -0.583550729167
 O1 0.375104 0.510902 0.4193  -0.583550729167
 O1 0.875092 0.511014 0.41941  -0.583550729167
 O1 0.258074 0.030022 0.51116  -0.583550729167
 O1 0.758059 0.030046 0.51120  -0.583550729167
 O1 0.208471 0.908733 0.48931  -0.583550729167
 O1 0.70846 0.908773 0.48940  -0.583550729167
