#======================================================================

# CRYSTAL DATA

#----------------------------------------------------------------------

data_VESTA_phase_1


_pd_phase_name                         MOF
_cell_length_a                         20.99400
_cell_length_b                         18.03800
_cell_length_c                         18.04100
_cell_angle_alpha                      120.02100
_cell_angle_beta                       90.00500
_cell_angle_gamma                      89.98200
_symmetry_space_group_name_H-M         "P 1"
_symmetry_Int_Tables_number            1

loop_
_symmetry_equiv_pos_as_xyz
   "x, y, z"

loop_
   _atom_site_label
   _atom_site_fract_x
   _atom_site_fract_y
   _atom_site_fract_z
 _atom_site_charge
 Zn1 0.366776 0.473667 0.54992  0.73423640625
 Zn1 0.866784 0.473667 0.54992  0.73423640625
 Zn1 0.200102 0.076318 0.5263  0.73423640625
 Zn1 0.700112 0.076318 0.52639  0.73423640625
 Zn1 0.033451 0.450057 0.92375  0.73423640625
 Zn1 0.53346 0.450056 0.92375  0.73423640625
 Zn1 0.116779 0.526387 0.4501  0.73423640625
 Zn1 0.616789 0.526388 0.45011  0.73423640625
 Zn1 0.450119 0.923687 0.47365  0.73423640625
 Zn1 0.950128 0.923686 0.4736  0.73423640625
 Zn1 0.283442 0.549917 0.07623  0.73423640625
 Zn1 0.783451 0.549918 0.07623  0.73423640625
 H1 0.417888 0.551593 0.48012  0.26658640625
 H1 0.9179 0.551594 0.48013  0.26658640625
 H2 0.303205 0.625476 0.47530  0.0994224776786
 H2 0.803216 0.625477 0.47530  0.0994224776786
 H2 0.297391 0.522153 0.3264  0.0994224776786
 H2 0.797403 0.522155 0.32647  0.0994224776786
 H2 0.373039 0.402905 0.25138  0.0994224776786
 H2 0.873051 0.402906 0.2513  0.0994224776786
 H2 0.326641 0.388541 0.32533  0.0994224776786
 H2 0.826652 0.388542 0.32533  0.0994224776786
 H2 0.406397 0.422137 0.35048  0.0994224776786
 H2 0.906409 0.422139 0.35048  0.0994224776786
 H2 0.436313 0.579762 0.37533  0.0994224776786
 H2 0.936325 0.579764 0.3753  0.0994224776786
 H2 0.372668 0.644584 0.3752  0.0994224776786
 H2 0.87268 0.644586 0.37522  0.0994224776786
 H2 0.396521 0.553318 0.27815  0.0994224776786
 H2 0.896533 0.55332 0.27815  0.0994224776786
 H2 0.337132 0.886818 0.55193  0.0994224776786
 H2 0.837143 0.886818 0.55193  0.0994224776786
 H2 0.020638 0.790425 0.49520  0.0994224776786
 H2 0.520643 0.790425 0.49520  0.0994224776786
 H2 0.305491 0.782446 0.59801  0.0994224776786
 H2 0.805502 0.782445 0.59801  0.0994224776786
 H2 0.497581 0.682017 0.53801  0.0994224776786
 H2 0.997593 0.682018 0.53801  0.0994224776786
 H2 0.336337 0.667189 0.6257  0.0994224776786
 H2 0.836349 0.66719 0.62574  0.0994224776786
 H2 0.418838 0.645811 0.62909  0.0994224776786
 H2 0.91885 0.645811 0.62909  0.0994224776786
 H1 0.251255 0.928517 0.44854  0.26658640625
 H1 0.751267 0.928518 0.44854  0.26658640625
 H2 0.136645 0.849721 0.37473  0.0994224776786
 H2 0.636657 0.84972 0.37473  0.0994224776786
 H2 0.13078 0.804413 0.47817  0.0994224776786
 H2 0.630792 0.804413 0.47817  0.0994224776786
 H2 0.206381 0.848883 0.59751  0.0994224776786
 H2 0.706393 0.848883 0.59751  0.0994224776786
 H2 0.159912 0.937101 0.61165  0.0994224776786
 H2 0.659924 0.937101 0.61165  0.0994224776786
 H2 0.239683 0.928645 0.57810  0.0994224776786
 H2 0.739695 0.928645 0.57810  0.0994224776786
 H2 0.269732 0.795595 0.42062  0.0994224776786
 H2 0.769744 0.795595 0.42062  0.0994224776786
 H2 0.206122 0.730602 0.35580  0.0994224776786
 H2 0.706135 0.730602 0.35580  0.0994224776786
 H2 0.229918 0.724907 0.44709  0.0994224776786
 H2 0.72993 0.724907 0.44709  0.0994224776786
 H2 0.170376 0.665104 0.11345  0.0994224776786
 H2 0.670388 0.665106 0.11345  0.0994224776786
 H2 0.353885 0.704641 0.20974  0.0994224776786
 H2 0.853897 0.704641 0.20974  0.0994224776786
 H2 0.138724 0.815632 0.21793  0.0994224776786
 H2 0.638737 0.815634 0.21793  0.0994224776786
 H2 0.33081 0.855918 0.31823  0.0994224776786
 H2 0.830822 0.855919 0.31823  0.0994224776786
 H2 0.169568 0.958607 0.33316  0.0994224776786
 H2 0.669581 0.958608 0.33316  0.0994224776786
 H2 0.252075 0.983326 0.35439  0.0994224776786
 H2 0.752088 0.983327 0.35439  0.0994224776786
 H1 0.084543 0.519994 0.07155  0.26658640625
 H1 0.584551 0.519996 0.07155  0.26658640625
 H2 0.4699 0.52498 0.15029  0.0994224776786
 H2 0.969907 0.52498 0.15029  0.0994224776786
 H2 0.464075 0.673823 0.19569  0.0994224776786
 H2 0.964081 0.673822 0.19569  0.0994224776786
 H2 0.039756 0.748619 0.15127  0.0994224776786
 H2 0.539765 0.748619 0.15127  0.0994224776786
 H2 0.493299 0.674589 0.06305  0.0994224776786
 H2 0.993306 0.674588 0.06305  0.0994224776786
 H2 0.073035 0.649359 0.071  0.0994224776786
 H2 0.573043 0.649358 0.07149  0.0994224776786
 H2 0.102991 0.624915 0.20449  0.0994224776786
 H2 0.603 0.624916 0.20449  0.0994224776786
 H2 0.039359 0.625288 0.26954  0.0994224776786
 H2 0.539371 0.625289 0.26954  0.0994224776786
 H2 0.063215 0.722211 0.27513  0.0994224776786
 H2 0.563225 0.722212 0.27512  0.0994224776786
 H2 0.003745 0.448521 0.33503  0.0994224776786
 H2 0.503757 0.448519 0.33503  0.0994224776786
 H2 0.187247 0.505122 0.29538  0.0994224776786
 H2 0.687258 0.505125 0.29539  0.0994224776786
 H2 0.472094 0.402401 0.18455  0.0994224776786
 H2 0.972097 0.402401 0.18455  0.0994224776786
 H2 0.164168 0.46226 0.14414  0.0994224776786
 H2 0.664179 0.462264 0.14414  0.0994224776786
 H2 0.002926 0.374509 0.04155  0.0994224776786
 H2 0.502939 0.374506 0.04155  0.0994224776786
 H2 0.08543 0.37098 0.01679  0.0994224776786
 H2 0.585443 0.370983 0.016  0.0994224776786
 H1 0.167908 0.448423 0.51988  0.26658640625
 H1 0.667918 0.448425 0.51988  0.26658640625
 H2 0.053266 0.374591 0.52475  0.0994224776786
 H2 0.553278 0.374591 0.52475  0.0994224776786
 H2 0.047426 0.477931 0.67356  0.0994224776786
 H2 0.547437 0.477932 0.67356  0.0994224776786
 H2 0.122996 0.597216 0.74862  0.0994224776786
 H2 0.623008 0.597217 0.74862  0.0994224776786
 H2 0.076556 0.611538 0.67467  0.0994224776786
 H2 0.576568 0.611539 0.67467  0.0994224776786
 H2 0.156334 0.577982 0.64952  0.0994224776786
 H2 0.656346 0.577983 0.64952  0.0994224776786
 H2 0.186378 0.420355 0.62468  0.0994224776786
 H2 0.68639 0.420356 0.62468  0.0994224776786
 H2 0.122781 0.355528 0.62482  0.0994224776786
 H2 0.622793 0.355528 0.62482  0.0994224776786
 H2 0.146602 0.446803 0.7218  0.0994224776786
 H2 0.646613 0.446804 0.72188  0.0994224776786
 H2 0.087099 0.11335 0.4482  0.0994224776786
 H2 0.587111 0.113351 0.4482  0.0994224776786
 H2 0.270639 0.209481 0.50479  0.0994224776786
 H2 0.770651 0.209482 0.50479  0.0994224776786
 H2 0.055486 0.217723 0.40208  0.0994224776786
 H2 0.555499 0.217723 0.40208  0.0994224776786
 H2 0.247615 0.317875 0.46193  0.0994224776786
 H2 0.747627 0.317877 0.4619  0.0994224776786
 H2 0.086375 0.332892 0.37427  0.0994224776786
 H2 0.586387 0.332892 0.37427  0.0994224776786
 H2 0.168879 0.354206 0.37092  0.0994224776786
 H2 0.668892 0.354208 0.37093  0.0994224776786
 H1 0.501226 0.07147 0.55147  0.26658640625
 H1 0.0 0.071469 0.55147  0.26658640625
 H2 0.386585 0.150289 0.62530  0.0994224776786
 H2 0.886596 0.150289 0.62530  0.0994224776786
 H2 0.380706 0.1956 0.52184  0.0994224776786
 H2 0.880717 0.1956 0.52184  0.0994224776786
 H2 0.456368 0.151133 0.40256  0.0994224776786
 H2 0.95638 0.151132 0.4025  0.0994224776786
 H2 0.409927 0.062913 0.38837  0.0994224776786
 H2 0.909939 0.062912 0.38837  0.0994224776786
 H2 0.489682 0.071372 0.42199  0.0994224776786
 H2 0.989694 0.071372 0.42199  0.0994224776786
 H2 0.019633 0.204421 0.57947  0.0994224776786
 H2 0.519638 0.204422 0.57947  0.0994224776786
 H2 0.455993 0.269426 0.6442  0.0994224776786
 H2 0.956004 0.269426 0.6442  0.0994224776786
 H2 0.479814 0.275107 0.55296  0.0994224776786
 H2 0.979827 0.275106 0.55296  0.0994224776786
 H2 0.420458 0.334976 0.88662  0.0994224776786
 H2 0.920465 0.334976 0.88662  0.0994224776786
 H2 0.103925 0.295252 0.79018  0.0994224776786
 H2 0.603933 0.295251 0.79018  0.0994224776786
 H2 0.388774 0.184486 0.78216  0.0994224776786
 H2 0.888781 0.184486 0.78216  0.0994224776786
 H2 0.08081 0.144006 0.68169  0.0994224776786
 H2 0.580818 0.144006 0.68169  0.0994224776786
 H2 0.419585 0.041482 0.66692  0.0994224776786
 H2 0.919593 0.041482 0.66692  0.0994224776786
 H2 0.002079 0.016675 0.64564  0.0994224776786
 H2 0.502086 0.016675 0.64564  0.0994224776786
 H1 0.334548 0.479977 0.92842  0.26658640625
 H1 0.83456 0.479979 0.92842  0.26658640625
 H2 0.219887 0.475037 0.84970  0.0994224776786
 H2 0.719898 0.475039 0.84970  0.0994224776786
 H2 0.214104 0.326191 0.80426  0.0994224776786
 H2 0.714117 0.326192 0.80426  0.0994224776786
 H2 0.289811 0.251327 0.8486  0.0994224776786
 H2 0.789824 0.251328 0.8486  0.0994224776786
 H2 0.243358 0.32538 0.93688  0.0994224776786
 H2 0.74337 0.325381 0.93688  0.0994224776786
 H2 0.323095 0.350553 0.92840  0.0994224776786
 H2 0.823107 0.350555 0.92840  0.0994224776786
 H2 0.353017 0.375017 0.79542  0.0994224776786
 H2 0.853029 0.375019 0.79542  0.0994224776786
 H2 0.289374 0.374718 0.73041  0.0994224776786
 H2 0.789386 0.37472 0.73041  0.0994224776786
 H2 0.313238 0.277761 0.72479  0.0994224776786
 H2 0.813251 0.277763 0.72479  0.0994224776786
 H2 0.253697 0.551628 0.66503  0.0994224776786
 H2 0.753709 0.551629 0.66503  0.0994224776786
 H2 0.437202 0.494845 0.70460  0.0994224776786
 H2 0.937214 0.494847 0.7046  0.0994224776786
 H2 0.222035 0.597717 0.81551  0.0994224776786
 H2 0.722047 0.597717 0.81551  0.0994224776786
 H2 0.414123 0.537675 0.85584  0.0994224776786
 H2 0.914135 0.537677 0.85584  0.0994224776786
 H2 0.25287 0.625491 0.95847  0.0994224776786
 H2 0.752882 0.625493 0.95847  0.0994224776786
 H2 0.335377 0.628994 0.98321  0.0994224776786
 H2 0.835389 0.628996 0.9832  0.0994224776786
 C1 0.264057 0.51271 0.46381  0.63893640625
 C1 0.764069 0.512711 0.46381  0.63893640625
 C2 0.32143 0.560561 0.45425  -0.08727359375
 C2 0.821441 0.560562 0.45425  -0.08727359375
 C3 0.341266 0.522052 0.35968  0.0912930729167
 C3 0.841278 0.522054 0.35968  0.0912930729167
 C4 0.36327 0.428966 0.31981  -0.354275260417
 C4 0.863281 0.428968 0.3198  -0.354275260417
 C4 0.3896 0.578206 0.34697  -0.354275260417
 C4 0.889612 0.578208 0.34697  -0.354275260417
 C5 0.370758 0.840005 0.54999  0.16866640625
 C5 0.870769 0.840006 0.54999  0.16866640625
 C5 0.473517 0.785549 0.51749  0.16866640625
 C5 0.973528 0.78555 0.51749  0.16866640625
 C6 0.353791 0.781491 0.57535  -0.204026927083
 C6 0.853802 0.781491 0.57535  -0.204026927083
 C7 0.398555 0.721618 0.57023  0.115059739583
 C7 0.898566 0.721618 0.57023  0.115059739583
 C6 0.459883 0.725494 0.5418  -0.204026927083
 C6 0.959894 0.725495 0.54187  -0.204026927083
 C8 0.381377 0.652158 0.59006  -0.0243602604167
 C8 0.88139 0.652159 0.59006  -0.0243602604167
 C1 0.097378 0.951128 0.48735  0.63893640625
 C1 0.597388 0.951128 0.48735  0.63893640625
 C2 0.154801 0.893698 0.43964  -0.08727359375
 C2 0.654812 0.893699 0.43964  -0.08727359375
 C3 0.17464 0.837726 0.47825  0.0912930729167
 C3 0.674652 0.837726 0.47825  0.0912930729167
 C4 0.196586 0.891127 0.5713  -0.354275260417
 C4 0.696598 0.891128 0.5713  -0.354275260417
 C4 0.223015 0.768807 0.42217  -0.354275260417
 C4 0.723028 0.768808 0.42217  -0.354275260417
 C5 0.204001 0.709967 0.16025  0.16866640625
 C5 0.704013 0.709968 0.16025  0.16866640625
 C5 0.30676 0.731851 0.21465  0.16866640625
 C5 0.806772 0.731851 0.21465  0.16866640625
 C6 0.18703 0.793876 0.21881  -0.204026927083
 C6 0.687042 0.793878 0.21881  -0.204026927083
 C7 0.231806 0.84861 0.27863  0.115059739583
 C7 0.731818 0.848611 0.27863  0.115059739583
 C6 0.293125 0.816312 0.27474  -0.204026927083
 C6 0.793137 0.816313 0.27474  -0.204026927083
 C8 0.214644 0.937942 0.34809  -0.0243602604167
 C8 0.714656 0.937943 0.34809  -0.0243602604167
 C1 0.430704 0.536278 0.04893  0.63893640625
 C1 0.930713 0.536279 0.04893  0.63893640625
 C2 0.488095 0.545934 0.10636  -0.08727359375
 C2 0.988103 0.545933 0.10636  -0.08727359375
 C3 0.007927 0.640524 0.16238  0.0912930729167
 C3 0.507937 0.640525 0.16238  0.0912930729167
 C4 0.029935 0.680172 0.10901  -0.354275260417
 C4 0.529943 0.680172 0.10901  -0.354275260417
 C4 0.056282 0.653356 0.23128  -0.354275260417
 C4 0.556292 0.653357 0.23128  -0.354275260417
 C5 0.037363 0.450406 0.29015  0.16866640625
 C5 0.537376 0.450406 0.29015  0.16866640625
 C5 0.140121 0.482835 0.2682  0.16866640625
 C5 0.640133 0.482837 0.26821  0.16866640625
 C6 0.020386 0.425026 0.20626  -0.204026927083
 C6 0.520398 0.425027 0.20626  -0.204026927083
 C7 0.065158 0.430053 0.15150  0.115059739583
 C7 0.56517 0.430055 0.1515  0.115059739583
 C6 0.12648 0.458434 0.18376  -0.204026927083
 C6 0.626491 0.458437 0.1837  -0.204026927083
 C8 0.04799 0.410115 0.06218  -0.0243602604167
 C8 0.548002 0.410116 0.06218  -0.0243602604167
 C1 0.014053 0.487331 0.53619  0.63893640625
 C1 0.514062 0.487329 0.53619  0.63893640625
 C2 0.071456 0.439501 0.54577  -0.08727359375
 C2 0.571467 0.439501 0.54577  -0.08727359375
 C3 0.091289 0.478041 0.6403  0.0912930729167
 C3 0.5913 0.478041 0.64035  0.0912930729167
 C4 0.113226 0.571135 0.68019  -0.354275260417
 C4 0.613237 0.571136 0.68019  -0.354275260417
 C4 0.139674 0.421908 0.6530  -0.354275260417
 C4 0.639685 0.421908 0.6530  -0.354275260417
 C5 0.120737 0.160106 0.4501  0.16866640625
 C5 0.62075 0.160106 0.45010  0.16866640625
 C5 0.223514 0.214417 0.48252  0.16866640625
 C5 0.723527 0.214418 0.48252  0.16866640625
 C6 0.103787 0.218619 0.42472  -0.204026927083
 C6 0.6038 0.218619 0.42472  -0.204026927083
 C7 0.148571 0.278415 0.42979  0.115059739583
 C7 0.648584 0.278415 0.42979  0.115059739583
 C6 0.2099 0.274463 0.45812  -0.204026927083
 C6 0.709912 0.274464 0.45812  -0.204026927083
 C8 0.131409 0.347885 0.40995  -0.0243602604167
 C8 0.631421 0.347886 0.40995  -0.0243602604167
 C1 0.347366 0.048888 0.5126  0.63893640625
 C1 0.847377 0.048889 0.51266  0.63893640625
 C2 0.404762 0.106316 0.56039  -0.08727359375
 C2 0.904773 0.106316 0.56039  -0.08727359375
 C3 0.42458 0.162293 0.52179  0.0912930729167
 C3 0.924591 0.162293 0.52179  0.0912930729167
 C4 0.446572 0.108888 0.42874  -0.354275260417
 C4 0.946584 0.108888 0.42874  -0.354275260417
 C4 0.472916 0.231214 0.57789  -0.354275260417
 C4 0.972927 0.231214 0.57789  -0.354275260417
 C5 0.454065 0.290076 0.839  0.16866640625
 C5 0.954073 0.290076 0.83979  0.16866640625
 C5 0.056798 0.268094 0.78531  0.16866640625
 C5 0.556807 0.268094 0.78531  0.16866640625
 C6 0.437077 0.206189 0.7812  -0.204026927083
 C6 0.937085 0.206188 0.7812  -0.204026927083
 C7 0.481834 0.151412 0.72138  0.115059739583
 C7 0.981843 0.151412 0.72138  0.115059739583
 C6 0.043144 0.18365 0.72522  -0.204026927083
 C6 0.543152 0.18365 0.72522  -0.204026927083
 C8 0.464654 0.062092 0.65195  -0.0243602604167
 C8 0.964663 0.062092 0.65195  -0.0243602604167
 C1 0.180709 0.463713 0.95105  0.63893640625
 C1 0.68072 0.463714 0.95105  0.63893640625
 C2 0.238096 0.454058 0.89361  -0.08727359375
 C2 0.738108 0.454059 0.89361  -0.08727359375
 C3 0.257963 0.359464 0.83757  0.0912930729167
 C3 0.757975 0.359466 0.83757  0.0912930729167
 C4 0.279991 0.31978 0.8909  -0.354275260417
 C4 0.780003 0.319781 0.89090  -0.354275260417
 C4 0.306306 0.34662 0.76865  -0.354275260417
 C4 0.806318 0.346621 0.76865  -0.354275260417
 C5 0.287318 0.549694 0.70989  0.16866640625
 C5 0.787331 0.549696 0.70989  0.16866640625
 C5 0.390076 0.517165 0.73180  0.16866640625
 C5 0.890088 0.517167 0.73180  0.16866640625
 C6 0.270341 0.575056 0.79377  -0.204026927083
 C6 0.770353 0.575057 0.79377  -0.204026927083
 C7 0.315111 0.569965 0.84851  0.115059739583
 C7 0.815123 0.569966 0.84851  0.115059739583
 C6 0.376434 0.541546 0.81623  -0.204026927083
 C6 0.876446 0.541547 0.81623  -0.204026927083
 C8 0.297946 0.589876 0.93783  -0.0243602604167
 C8 0.797958 0.589877 0.93783  -0.0243602604167
 Br1 0.380138 0.323434 0.45712  -0.51434359375
 Br1 0.880151 0.323434 0.45712  -0.51434359375
 Br1 0.21336 0.134024 0.6766  -0.51434359375
 Br1 0.713372 0.134024 0.67661  -0.51434359375
 Br1 0.046708 0.542612 0.86609  -0.51434359375
 Br1 0.546717 0.542611 0.86609  -0.51434359375
 Br1 0.130097 0.676621 0.54287  -0.51434359375
 Br1 0.630107 0.676622 0.54287  -0.51434359375
 Br1 0.463353 0.865966 0.32343  -0.51434359375
 Br1 0.963364 0.865965 0.32343  -0.51434359375
 Br1 0.29677 0.457326 0.13383  -0.51434359375
 Br1 0.796782 0.457328 0.1338  -0.51434359375
 N1 0.374586 0.566511 0.51150  -0.371516927083
 N1 0.874597 0.566512 0.51150  -0.371516927083
 N2 0.429451 0.84179 0.52036  -0.306130260417
 N2 0.929462 0.841791 0.52036  -0.306130260417
 N1 0.207933 0.945016 0.43371  -0.371516927083
 N1 0.707945 0.945017 0.43371  -0.371516927083
 N2 0.262704 0.678512 0.15839  -0.306130260417
 N2 0.762716 0.678513 0.15839  -0.306130260417
 N1 0.04124 0.488637 0.05506  -0.371516927083
 N1 0.541249 0.488637 0.05506  -0.371516927083
 N2 0.096071 0.479964 0.32156  -0.306130260417
 N2 0.596083 0.479965 0.32156  -0.306130260417
 N1 0.124606 0.433535 0.48851  -0.371516927083
 N1 0.624617 0.433536 0.48851  -0.371516927083
 N2 0.179432 0.15825 0.47970  -0.306130260417
 N2 0.679444 0.158251 0.47970  -0.306130260417
 N1 0.457916 0.054993 0.56633  -0.371516927083
 N1 0.957927 0.054993 0.56633  -0.371516927083
 N2 0.012757 0.321472 0.84161  -0.306130260417
 N2 0.512766 0.321472 0.84161  -0.306130260417
 N1 0.291233 0.51134 0.94492  -0.371516927083
 N1 0.791245 0.511341 0.94492  -0.371516927083
 N2 0.346027 0.520093 0.67846  -0.306130260417
 N2 0.846039 0.520095 0.67846  -0.306130260417
 O1 0.266462 0.487367 0.51838  -0.577565260417
 O1 0.766472 0.487367 0.51838  -0.577565260417
 O1 0.216953 0.503209 0.41609  -0.577565260417
 O1 0.716964 0.503211 0.41609  -0.577565260417
 O1 0.099761 0.031046 0.51268  -0.577565260417
 O1 0.599772 0.031046 0.5126  -0.577565260417
 O1 0.050282 0.912923 0.49687  -0.577565260417
 O1 0.550292 0.912924 0.49687  -0.577565260417
 O1 0.433129 0.481654 0.9690  -0.577565260417
 O1 0.933137 0.481653 0.96900  -0.577565260417
 O1 0.383585 0.584021 0.0871  -0.577565260417
 O1 0.883593 0.584021 0.08712  -0.577565260417
 O1 0.016451 0.512705 0.48165  -0.577565260417
 O1 0.516461 0.512706 0.48165  -0.577565260417
 O1 0.466959 0.49683 0.58391  -0.577565260417
 O1 0.966966 0.496832 0.58391  -0.577565260417
 O1 0.349782 0.968977 0.4873  -0.577565260417
 O1 0.849792 0.968977 0.4873  -0.577565260417
 O1 0.300251 0.0871 0.50314  -0.577565260417
 O1 0.800262 0.0871 0.50314  -0.577565260417
 O1 0.18312 0.518341 0.03097  -0.577565260417
 O1 0.68313 0.518343 0.03097  -0.577565260417
 O1 0.133606 0.415976 0.91285  -0.577565260417
 O1 0.633617 0.415978 0.91285  -0.577565260417
