#======================================================================

# CRYSTAL DATA

#----------------------------------------------------------------------

data_VESTA_phase_1


_pd_phase_name                         MOF
_cell_length_a                         14.12400
_cell_length_b                         14.14000
_cell_length_c                         14.12200
_cell_angle_alpha                      104.88600
_cell_angle_beta                       104.72200
_cell_angle_gamma                      104.84100
_symmetry_space_group_name_H-M         "P 1"
_symmetry_Int_Tables_number            1

loop_
_symmetry_equiv_pos_as_xyz
   "x, y, z"

loop_
   _atom_site_label
   _atom_site_fract_x
   _atom_site_fract_y
   _atom_site_fract_z
 _atom_site_charge
 Ag1 0.212649 0.212804 0.47826  0.51326483871
 Ag1 0.478516 0.212891 0.21275  0.51326483871
 Ag1 0.212709 0.478224 0.21272  0.51326483871
 Ag1 0.787342 0.787214 0.52170  0.51326483871
 Ag1 0.787283 0.521793 0.78724  0.51326483871
 Ag1 0.521475 0.787126 0.78720  0.51326483871
 Ag2 0.724441 0.999973 0.27553  0.51846483871
 Ag2 0.275839 0.724398 3e-0  0.51846483871
 Ag2 2.2e-05 0.275747 0.72399  0.51846483871
 Ag2 0.275549 2.8e-05 0.72442  0.51846483871
 Ag2 0.724146 0.27562 0.99999  0.51846483871
 Ag2 0.999987 0.724272 0.27596  0.51846483871
 H1 0.469057 0.362158 0.70725  0.15913483871
 H2 0.893257 0.178304 0.42548  0.33560858871
 H2 0.028729 0.236308 0.49228  0.33560858871
 H2 0.745616 0.824417 0.25432  0.33560858871
 H2 0.397877 0.190923 0.47807  0.33560858871
 H1 0.707016 0.469375 0.36253  0.15913483871
 H2 0.425547 0.893489 0.17846  0.33560858871
 H2 0.492364 0.028914 0.23643  0.33560858871
 H2 0.254253 0.745615 0.82420  0.33560858871
 H2 0.478235 0.398082 0.19037  0.33560858871
 H1 0.362266 0.707058 0.46891  0.15913483871
 H2 0.178636 0.425505 0.89320  0.33560858871
 H2 0.236488 0.492301 0.02878  0.33560858871
 H2 0.824462 0.254515 0.7455  0.33560858871
 H2 0.19033 0.478092 0.39804  0.33560858871
 H1 0.637558 0.530889 0.29296  0.15913483871
 H2 0.821547 0.10655 0.57443  0.33560858871
 H2 0.763602 0.971102 0.50768  0.33560858871
 H2 0.17568 0.25439 0.74562  0.33560858871
 H2 0.809762 0.601991 0.52181  0.33560858871
 H1 0.53089 0.292843 0.63765  0.15913483871
 H2 0.106757 0.574503 0.82122  0.33560858871
 H2 0.971247 0.507708 0.76334  0.33560858871
 H2 0.254352 0.745514 0.17555  0.33560858871
 H2 0.601926 0.521899 0.80951  0.33560858871
 H1 0.29283 0.637824 0.53085  0.15913483871
 H2 0.574495 0.8218 0.1067  0.33560858871
 H2 0.507623 0.763803 0.97118  0.33560858871
 H2 0.745749 0.175646 0.25445  0.33560858871
 H2 0.521858 0.809073 0.60204  0.33560858871
 H1 0.530934 0.637861 0.29271  0.15913483871
 H2 0.106735 0.821714 0.57448  0.33560858871
 H2 0.971262 0.76371 0.50768  0.33560858871
 H2 0.254376 0.175601 0.74564  0.33560858871
 H2 0.602114 0.809094 0.52188  0.33560858871
 H1 0.292974 0.530642 0.63743  0.15913483871
 H2 0.574445 0.106529 0.82150  0.33560858871
 H2 0.507627 0.971104 0.76353  0.33560858871
 H2 0.745738 0.254403 0.17576  0.33560858871
 H2 0.521756 0.601935 0.80959  0.33560858871
 H1 0.637726 0.29296 0.5310  0.15913483871
 H2 0.821356 0.574513 0.10676  0.33560858871
 H2 0.763504 0.507717 0.97118  0.33560858871
 H2 0.17553 0.745504 0.25441  0.33560858871
 H2 0.809661 0.521925 0.60192  0.33560858871
 H1 0.362434 0.46913 0.70700  0.15913483871
 H2 0.178444 0.893468 0.42553  0.33560858871
 H2 0.236389 0.028916 0.49228  0.33560858871
 H2 0.824312 0.745628 0.25434  0.33560858871
 H2 0.19023 0.398027 0.47814  0.33560858871
 H1 0.469103 0.707175 0.36231  0.15913483871
 H2 0.893235 0.425516 0.17874  0.33560858871
 H2 0.028745 0.49231 0.23662  0.33560858871
 H2 0.74564 0.254504 0.8244  0.33560858871
 H2 0.398066 0.478118 0.19045  0.33560858871
 H1 0.70716 0.362192 0.46910  0.15913483871
 H2 0.425497 0.178217 0.89325  0.33560858871
 H2 0.492369 0.236214 0.02877  0.33560858871
 H2 0.254243 0.824372 0.74551  0.33560858871
 H2 0.478133 0.190944 0.39791  0.33560858871
 C1 0.40856 0.198054 0.67381  0.77985483871
 C2 0.976479 0.080335 0.40517  0.74118983871
 C1 0.673963 0.408645 0.19827  0.77985483871
 C2 0.405262 0.97654 0.08041  0.74118983871
 C1 0.19803 0.673868 0.40869  0.77985483871
 C2 0.08046 0.405279 0.97644  0.74118983871
 C1 0.801785 0.591392 0.3260  0.77985483871
 C2 0.919593 0.023481 0.59474  0.74118983871
 C1 0.591321 0.326087 0.80189  0.77985483871
 C2 0.023537 0.594744 0.91945  0.74118983871
 C1 0.326168 0.801946 0.5913  0.77985483871
 C2 0.59477 0.919725 0.02348  0.74118983871
 C1 0.591431 0.801963 0.32615  0.77985483871
 C2 0.023512 0.919683 0.59479  0.74118983871
 C1 0.326028 0.591372 0.80168  0.77985483871
 C2 0.594729 0.023477 0.91955  0.74118983871
 C1 0.801962 0.32615 0.59127  0.77985483871
 C2 0.919532 0.594739 0.0235  0.74118983871
 C1 0.198206 0.408626 0.67387  0.77985483871
 C2 0.080398 0.976537 0.40522  0.74118983871
 C1 0.408672 0.67393 0.19807  0.77985483871
 C2 0.976454 0.405275 0.08051  0.74118983871
 C1 0.673823 0.198073 0.40859  0.77985483871
 C2 0.405222 0.080292 0.9764  0.74118983871
 C2 0.90272 0.902704 0.32029  0.74118983871
 C2 0.320252 0.902691 0.90266  0.74118983871
 C2 0.90275 0.320426 0.90271  0.74118983871
 C2 0.097271 0.097314 0.67966  0.74118983871
 C2 0.097242 0.679592 0.09725  0.74118983871
 C2 0.67974 0.097327 0.09729  0.74118983871
 C3 0.499969 0.297757 0.70217  -0.55393516129
 C3 0.702057 0.500088 0.29798  -0.55393516129
 C3 0.297822 0.702189 0.49993  -0.55393516129
 C3 0.500021 0.702261 0.29779  -0.55393516129
 C3 0.297934 0.49993 0.70198  -0.55393516129
 C3 0.702169 0.297828 0.50003  -0.55393516129
 C2 0.388399 0.284954 0.38840  0.74118983871
 C2 0.388439 0.388543 0.28459  0.74118983871
 C2 0.284508 0.388509 0.38840  0.74118983871
 C2 0.715484 0.611508 0.61156  0.74118983871
 C2 0.611552 0.611473 0.71537  0.74118983871
 C2 0.611592 0.715063 0.61156  0.74118983871
 N1 0.889355 0.996353 0.34746  -0.66999016129
 N2 0.966577 0.174104 0.4363  -0.68180516129
 N1 0.347553 0.88938 0.99635  -0.66999016129
 N2 0.436441 0.966737 0.17423  -0.68180516129
 N1 0.996458 0.347672 0.88927  -0.66999016129
 N2 0.17432 0.4364 0.96654  -0.68180516129
 N1 0.003605 0.110647 0.65236  -0.66999016129
 N2 0.825782 0.033299 0.56358  -0.68180516129
 N1 0.11067 0.652373 0.00350  -0.66999016129
 N2 0.033443 0.563608 0.82555  -0.68180516129
 N1 0.652543 0.003703 0.11064  -0.66999016129
 N2 0.563591 0.825981 0.03336  -0.68180516129
 N1 0.110636 0.003665 0.65250  -0.66999016129
 N2 0.033415 0.825914 0.56362  -0.68180516129
 N1 0.652438 0.110638 0.00361  -0.66999016129
 N2 0.56355 0.033281 0.82573  -0.68180516129
 N1 0.003534 0.652346 0.11069  -0.66999016129
 N2 0.825672 0.563617 0.03342  -0.68180516129
 N1 0.996387 0.889371 0.34759  -0.66999016129
 N2 0.17421 0.966719 0.43637  -0.68180516129
 N1 0.889322 0.347644 0.99646  -0.66999016129
 N2 0.96655 0.43641 0.17441  -0.68180516129
 N1 0.347448 0.996315 0.88932  -0.66999016129
 N2 0.4364 0.174036 0.96659  -0.68180516129
 N1 0.074059 0.074046 0.43306  -0.66999016129
 N2 0.818027 0.818023 0.26293  -0.68180516129
 N1 0.317592 0.317931 0.42486  -0.66999016129
 N1 0.43317 0.074023 0.07409  -0.66999016129
 N2 0.262847 0.818008 0.81794  -0.68180516129
 N1 0.424945 0.317996 0.31769  -0.66999016129
 N1 0.074069 0.433119 0.07412  -0.66999016129
 N2 0.818076 0.263039 0.81800  -0.68180516129
 N1 0.317647 0.424918 0.31767  -0.66999016129
 N1 0.925932 0.925972 0.56690  -0.66999016129
 N2 0.181965 0.181995 0.73703  -0.68180516129
 N1 0.6824 0.682086 0.57510  -0.66999016129
 N1 0.925923 0.566898 0.92584  -0.66999016129
 N2 0.181916 0.736977 0.18195  -0.68180516129
 N1 0.682345 0.5751 0.68228  -0.66999016129
 N1 0.566822 0.925994 0.92587  -0.66999016129
 N2 0.737144 0.18201 0.18202  -0.68180516129
 N1 0.575047 0.682022 0.68227  -0.66999016129
 N2 0.423245 0.216612 0.42323  -0.68180516129
 N2 0.423312 0.423312 0.21607  -0.68180516129
 N2 0.215944 0.42326 0.42324  -0.68180516129
 N2 0.784049 0.576759 0.5767  -0.68180516129
 N2 0.576682 0.576707 0.78389  -0.68180516129
 N2 0.576748 0.783407 0.57672  -0.68180516129
 O1 0.356798 0.148401 0.5772  -0.67119516129
 O2 0.386425 0.17378 0.74830  -0.62791516129
 O1 0.577468 0.357004 0.14822  -0.67119516129
 O2 0.74859 0.386389 0.174  -0.62791516129
 O1 0.148137 0.57734 0.35710  -0.67119516129
 O2 0.173953 0.748305 0.38653  -0.62791516129
 O1 0.851894 0.643001 0.42262  -0.67119516129
 O2 0.825653 0.613606 0.25145  -0.62791516129
 O1 0.642951 0.422619 0.85171  -0.67119516129
 O2 0.613478 0.25166 0.82598  -0.62791516129
 O1 0.422714 0.851613 0.64311  -0.67119516129
 O2 0.251687 0.826224 0.61354  -0.62791516129
 O1 0.643195 0.851616 0.42273  -0.67119516129
 O2 0.613566 0.826236 0.25166  -0.62791516129
 O1 0.422524 0.643013 0.85174  -0.67119516129
 O2 0.251401 0.613628 0.82556  -0.62791516129
 O1 0.851855 0.422679 0.64286  -0.67119516129
 O2 0.82604 0.251714 0.61343  -0.62791516129
 O1 0.148097 0.357016 0.57734  -0.67119516129
 O2 0.174339 0.386412 0.74851  -0.62791516129
 O1 0.357041 0.577398 0.14824  -0.67119516129
 O2 0.386513 0.748358 0.17397  -0.62791516129
 O1 0.577277 0.148405 0.35685  -0.67119516129
 O2 0.748304 0.173794 0.38642  -0.62791516129
