#======================================================================

# CRYSTAL DATA

#----------------------------------------------------------------------

data_VESTA_phase_1


_pd_phase_name                         MOF
_cell_length_a                         13.14400
_cell_length_b                         13.12600
_cell_length_c                         13.66000
_cell_angle_alpha                      89.93300
_cell_angle_beta                       89.93300
_cell_angle_gamma                      89.98900
_symmetry_space_group_name_H-M         "P 1"
_symmetry_Int_Tables_number            1

loop_
_symmetry_equiv_pos_as_xyz
   "x, y, z"

loop_
   _atom_site_label
   _atom_site_fract_x
   _atom_site_fract_y
   _atom_site_fract_z
 _atom_site_charge
 Ag1 0.825802 0.332924 0.75044  0.316212058824
 Ag1 0.675542 0.168523 0.75137  0.316212058824
 Ag1 0.667426 0.325105 0.2507  0.316212058824
 Ag1 0.831145 0.17422 0.25102  0.316212058824
 Ag1 0.174162 0.667043 0.24952  0.316212058824
 Ag1 0.324424 0.831452 0.24857  0.316212058824
 Ag1 0.332493 0.674828 0.74925  0.316212058824
 Ag1 0.168846 0.825782 0.74897  0.316212058824
 H1 0.082809 0.311293 0.79432  0.129572058824
 H1 0.086186 0.356768 0.67149  0.129572058824
 H1 0.159084 0.421373 0.76546  0.129572058824
 H1 0.040972 0.793863 0.9770  0.129572058824
 H1 0.117859 0.855967 0.06829  0.129572058824
 H1 0.005805 0.789653 0.10582  0.129572058824
 H1 0.417237 0.188538 0.79284  0.129572058824
 H1 0.415655 0.142538 0.67025  0.129572058824
 H1 0.342347 0.077608 0.76399  0.129572058824
 H1 0.459795 0.70616 0.97670  0.129572058824
 H1 0.382939 0.6437 0.06805  0.129572058824
 H1 0.494399 0.7109 0.10544  0.129572058824
 H1 0.688482 0.583117 0.29420  0.129572058824
 H1 0.643133 0.586363 0.17143  0.129572058824
 H1 0.578172 0.658963 0.26554  0.129572058824
 H1 0.206046 0.540191 0.47729  0.129572058824
 H1 0.143904 0.617011 0.56871  0.129572058824
 H1 0.210678 0.505041 0.60596  0.129572058824
 H1 0.810329 0.916817 0.29468  0.129572058824
 H1 0.855686 0.91383 0.17183  0.129572058824
 H1 0.920427 0.84072 0.26572  0.129572058824
 H1 0.292923 0.958917 0.47500  0.129572058824
 H1 0.355867 0.88239 0.56614  0.129572058824
 H1 0.289517 0.994577 0.6035  0.129572058824
 H1 0.91717 0.688734 0.20566  0.129572058824
 H1 0.913788 0.643255 0.32848  0.129572058824
 H1 0.840856 0.578682 0.23452  0.129572058824
 H1 0.958998 0.206148 0.02289  0.129572058824
 H1 0.882146 0.144023 0.93168  0.129572058824
 H1 0.994181 0.210367 0.89416  0.129572058824
 H1 0.582791 0.811383 0.20714  0.129572058824
 H1 0.584343 0.857389 0.32972  0.129572058824
 H1 0.657668 0.922318 0.23600  0.129572058824
 H1 0.540201 0.293707 0.02329  0.129572058824
 H1 0.617039 0.356198 0.93195  0.129572058824
 H1 0.505589 0.288997 0.89455  0.129572058824
 H1 0.311494 0.416815 0.70574  0.129572058824
 H1 0.356841 0.413572 0.8285  0.129572058824
 H1 0.421821 0.340991 0.73440  0.129572058824
 H1 0.793941 0.459798 0.52262  0.129572058824
 H1 0.856062 0.382963 0.43121  0.129572058824
 H1 0.789287 0.494926 0.39395  0.129572058824
 H1 0.189674 0.083179 0.70527  0.129572058824
 H1 0.144328 0.086182 0.82813  0.129572058824
 H1 0.07958 0.159281 0.73423  0.129572058824
 H1 0.70709 0.041041 0.52499  0.129572058824
 H1 0.644125 0.117576 0.4338  0.129572058824
 H1 0.710471 0.005395 0.39648  0.129572058824
 C1 0.120651 0.620503 0.86075  0.603392058824
 C2 0.056428 0.558118 0.93210  -0.0780979411765
 C3 0.991374 0.480481 0.89843  0.0197820588235
 C3 0.064092 0.578327 0.03323  0.0197820588235
 C4 0.089234 0.37951 0.74868  -0.302305441176
 C4 0.068223 0.790766 0.05283  -0.302305441176
 C1 0.380595 0.880085 0.86016  0.603392058824
 C2 0.444135 0.942187 0.93183  -0.0780979411765
 C3 0.509315 0.019949 0.89847  0.0197820588235
 C3 0.435616 0.92151 0.03287  0.0197820588235
 C4 0.411979 0.120086 0.7475  -0.302305441176
 C4 0.432187 0.709204 0.05238  -0.302305441176
 C1 0.378982 0.619279 0.36046  0.603392058824
 C2 0.441609 0.555755 0.43198  -0.0780979411765
 C3 0.519632 0.491018 0.39845  0.0197820588235
 C3 0.421344 0.563951 0.53307  0.0197820588235
 C4 0.620364 0.589232 0.24866  -0.302305441176
 C4 0.209175 0.567537 0.55298  -0.302305441176
 C1 0.119283 0.87909 0.3603  0.603392058824
 C2 0.057327 0.943258 0.43193  -0.0780979411765
 C3 0.979726 0.008517 0.39854  0.0197820588235
 C3 0.07836 0.935646 0.53290  0.0197820588235
 C4 0.878448 0.91063 0.2490  -0.302305441176
 C4 0.290491 0.931868 0.55087  -0.302305441176
 C1 0.879303 0.379478 0.13922  0.603392058824
 C2 0.94347 0.441905 0.06786  -0.0780979411765
 C3 0.008536 0.519524 0.10154  0.0197820588235
 C3 0.935832 0.421647 0.96673  0.0197820588235
 C4 0.910725 0.620517 0.251  -0.302305441176
 C4 0.931756 0.209245 0.94715  -0.302305441176
 C1 0.619396 0.119845 0.13978  0.603392058824
 C2 0.555894 0.0577 0.0681  -0.0780979411765
 C3 0.490723 0.979941 0.10150  0.0197820588235
 C3 0.564404 0.078419 0.96709  0.0197820588235
 C4 0.588031 0.879841 0.25242  -0.302305441176
 C4 0.567804 0.290679 0.94761  -0.302305441176
 C1 0.621006 0.380732 0.63951  0.603392058824
 C2 0.558354 0.444219 0.56797  -0.0780979411765
 C3 0.480342 0.508967 0.60151  0.0197820588235
 C3 0.57864 0.43604 0.46688  0.0197820588235
 C4 0.379612 0.41071 0.75129  -0.302305441176
 C4 0.790793 0.432439 0.44694  -0.302305441176
 C1 0.88072 0.120909 0.63958  0.603392058824
 C2 0.942673 0.05673 0.56804  -0.0780979411765
 C3 0.020275 0.991474 0.60144  0.0197820588235
 C3 0.921632 0.064336 0.46708  0.0197820588235
 C4 0.121559 0.089372 0.75095  -0.302305441176
 C4 0.709507 0.068098 0.44912  -0.302305441176
 S1 0.981403 0.463535 0.76886  0.0244020588235
 S1 0.148909 0.67901 0.06658  0.0244020588235
 S1 0.5204 0.037153 0.76896  0.0244020588235
 S1 0.350788 0.820496 0.06560  0.0244020588235
 S1 0.536919 0.480874 0.26890  0.0244020588235
 S1 0.320501 0.648705 0.56626  0.0244020588235
 S1 0.962141 0.01871 0.26904  0.0244020588235
 S1 0.179233 0.850813 0.56580  0.0244020588235
 S1 0.01853 0.536459 0.23111  0.0244020588235
 S1 0.851016 0.320963 0.93338  0.0244020588235
 S1 0.479603 0.962766 0.23101  0.0244020588235
 S1 0.649245 0.179422 0.93435  0.0244020588235
 S1 0.463034 0.519089 0.73106  0.0244020588235
 S1 0.679466 0.351264 0.43370  0.0244020588235
 S1 0.037863 0.98129 0.73094  0.0244020588235
 S1 0.820755 0.149167 0.43418  0.0244020588235
 O1 0.08403 0.706562 0.83764  -0.551347941176
 O1 0.203877 0.580651 0.8342  -0.551347941176
 O1 0.417671 0.794257 0.83710  -0.551347941176
 O1 0.297534 0.919983 0.83334  -0.551347941176
 O1 0.293299 0.581982 0.33763  -0.551347941176
 O1 0.418306 0.702676 0.33349  -0.551347941176
 O1 0.205065 0.915979 0.33705  -0.551347941176
 O1 0.07956 0.795809 0.33388  -0.551347941176
 O1 0.915956 0.293433 0.16233  -0.551347941176
 O1 0.796059 0.419283 0.16573  -0.551347941176
 O1 0.582291 0.205659 0.16285  -0.551347941176
 O1 0.702478 0.080004 0.16662  -0.551347941176
 O1 0.706691 0.41803 0.66233  -0.551347941176
 O1 0.58169 0.297329 0.66647  -0.551347941176
 O1 0.794935 0.084028 0.66291  -0.551347941176
 O1 0.920439 0.204196 0.66607  -0.551347941176
