#======================================================================

# CRYSTAL DATA

#----------------------------------------------------------------------

data_VESTA_phase_1


_pd_phase_name                         MOF
_cell_length_a                         13.21900
_cell_length_b                         14.33000
_cell_length_c                         14.33700
_cell_angle_alpha                      77.76700
_cell_angle_beta                       62.58900
_cell_angle_gamma                      62.64700
_symmetry_space_group_name_H-M         "P 1"
_symmetry_Int_Tables_number            1

loop_
_symmetry_equiv_pos_as_xyz
   "x, y, z"

loop_
   _atom_site_label
   _atom_site_fract_x
   _atom_site_fract_y
   _atom_site_fract_z
 _atom_site_charge
 Cu1 0.392934 0.249777 0.71464  0.213533515625
 Cu1 0.857015 0.250011 0.78555  0.213533515625
 Cu1 0.606972 0.285509 0.750  0.213533515625
 Cu1 0.142973 0.214607 0.74996  0.213533515625
 Cu1 0.607076 0.750186 0.2853  0.213533515625
 Cu1 0.142953 0.750034 0.21445  0.213533515625
 Cu1 0.393056 0.71449 0.24987  0.213533515625
 Cu1 0.856971 0.785406 0.25010  0.213533515625
 H1 0.363021 0.334388 0.48799  0.0937120572917
 H1 0.254924 0.376714 0.61785  0.0937120572917
 H1 0.685938 0.165383 0.01223  0.0937120572917
 H1 0.749559 0.123054 0.88239  0.0937120572917
 H1 0.351365 0.511928 0.83434  0.0937120572917
 H1 0.372736 0.38205 0.87675  0.0937120572917
 H1 0.197926 0.987669 0.66531  0.0937120572917
 H1 0.132172 0.117502 0.62287  0.0937120572917
 H1 0.314054 0.988004 0.83441  0.0937120572917
 H1 0.25049 0.117838 0.8767  0.0937120572917
 H1 0.636955 0.512166 0.665  0.0937120572917
 H1 0.745024 0.382332 0.62301  0.0937120572917
 H1 0.801789 0.334763 0.01236  0.0937120572917
 H1 0.867783 0.377146 0.88249  0.0937120572917
 H1 0.648788 0.165657 0.48810  0.0937120572917
 H1 0.627235 0.123252 0.61798  0.0937120572917
 H1 0.636973 0.665579 0.51201  0.0937120572917
 H1 0.745084 0.623269 0.38215  0.0937120572917
 H1 0.314025 0.83462 0.98774  0.0937120572917
 H1 0.250433 0.876918 0.11760  0.0937120572917
 H1 0.648607 0.488103 0.16565  0.0937120572917
 H1 0.627248 0.617978 0.1232  0.0937120572917
 H1 0.801998 0.012348 0.33475  0.0937120572917
 H1 0.867794 0.882502 0.37715  0.0937120572917
 H1 0.685899 0.012017 0.16560  0.0937120572917
 H1 0.749462 0.882177 0.12329  0.0937120572917
 H1 0.363052 0.487802 0.33460  0.0937120572917
 H1 0.254995 0.617639 0.37698  0.0937120572917
 H1 0.198171 0.66526 0.9876  0.0937120572917
 H1 0.132205 0.62286 0.11751  0.0937120572917
 H1 0.351167 0.834323 0.51198  0.0937120572917
 H1 0.37273 0.876706 0.38209  0.0937120572917
 H1 0.170999 0.48335 0.48369  0.0937120572917
 H1 0.174279 0.561039 0.56132  0.0937120572917
 H1 0.638108 0.016318 0.01665  0.0937120572917
 H1 0.796293 0.938711 0.9389  0.0937120572917
 H1 0.154904 0.516098 0.98327  0.0937120572917
 H1 0.235492 0.438499 0.06104  0.0937120572917
 H1 0.154857 0.983203 0.51617  0.0937120572917
 H1 0.235582 0.060971 0.43853  0.0937120572917
 H1 0.361857 0.983681 0.98335  0.0937120572917
 H1 0.203675 0.061278 0.06107  0.0937120572917
 H1 0.82901 0.516627 0.51631  0.0937120572917
 H1 0.825746 0.438935 0.43867  0.0937120572917
 H1 0.84508 0.483917 0.01673  0.0937120572917
 H1 0.764502 0.561514 0.93895  0.0937120572917
 H1 0.845105 0.01677 0.48389  0.0937120572917
 H1 0.76439 0.938993 0.56151  0.0937120572917
 C1 0.410722 0.4172 0.55624  0.242325390625
 C2 0.31427 0.400843 0.54257  -0.171930651042
 C1 0.884249 0.082693 0.94386  0.242325390625
 C2 0.757855 0.098946 0.95764  -0.171930651042
 C1 0.466968 0.443729 0.91723  0.242325390625
 C2 0.356949 0.45734 0.90084  -0.171930651042
 C1 0.328167 0.056061 0.58265  0.242325390625
 C2 0.215529 0.042263 0.59883  -0.171930651042
 C1 0.115715 0.056271 0.91724  0.242325390625
 C2 0.242127 0.042571 0.90087  -0.171930651042
 C1 0.589246 0.44385 0.58269  0.242325390625
 C2 0.685713 0.457598 0.5989  -0.171930651042
 C1 0.671757 0.417398 0.94392  0.242325390625
 C2 0.784353 0.401216 0.95772  -0.171930651042
 C1 0.533038 0.082739 0.55631  0.242325390625
 C2 0.643085 0.099156 0.54269  -0.171930651042
 C1 0.589307 0.582758 0.44375  0.242325390625
 C2 0.685743 0.599127 0.45743  -0.171930651042
 C1 0.115716 0.917313 0.05615  0.242325390625
 C2 0.242119 0.901045 0.0423  -0.171930651042
 C1 0.533022 0.556294 0.08275  0.242325390625
 C2 0.643037 0.542686 0.09915  -0.171930651042
 C1 0.67179 0.94393 0.4174  0.242325390625
 C2 0.784428 0.957733 0.40121  -0.171930651042
 C1 0.884246 0.943736 0.08277  0.242325390625
 C2 0.757832 0.95744 0.09914  -0.171930651042
 C1 0.41078 0.556116 0.417  0.242325390625
 C2 0.314305 0.542372 0.4010  -0.171930651042
 C1 0.328224 0.582634 0.05607  0.242325390625
 C2 0.215629 0.598802 0.04228  -0.171930651042
 C1 0.466927 0.917235 0.44375  0.242325390625
 C2 0.356875 0.900817 0.45738  -0.171930651042
 C3 0.4542 0.493384 0.49344  -0.101266484375
 C2 0.234441 0.499893 0.50015  -0.171930651042
 C3 0.941062 0.006518 0.00658  -0.101266484375
 C2 0.734471 0.999848 0.00010  -0.171930651042
 C3 0.447659 0.506533 0.99340  -0.101266484375
 C2 0.234702 0.499688 0.99985  -0.171930651042
 C3 0.447644 0.993393 0.5065  -0.101266484375
 C2 0.234683 0.999817 0.49973  -0.171930651042
 C3 0.058887 0.993501 0.99345  -0.101266484375
 C2 0.265493 0.0 0.99991  -0.171930651042
 C3 0.545848 0.506556 0.50652  -0.101266484375
 C2 0.765577 0.500078 0.49984  -0.171930651042
 C3 0.55232 0.493512 0.00657  -0.101266484375
 C2 0.765284 0.50033 0.00014  -0.171930651042
 C3 0.552315 0.006569 0.49352  -0.101266484375
 C2 0.765276 0.000161 0.50032  -0.171930651042
 I1 0.499861 0.151969 0.84807  -0.360091484375
 I1 7.4e-05 0.347614 0.65243  -0.360091484375
 I1 0.847245 0.152316 0.65234  -0.360091484375
 I1 0.152574 0.347786 0.84783  -0.360091484375
 I1 0.500101 0.848029 0.15196  -0.360091484375
 I1 0.999911 0.652399 0.34760  -0.360091484375
 I1 0.152723 0.847689 0.34766  -0.360091484375
 I1 0.847383 0.652222 0.15219  -0.360091484375
 N1 0.454735 0.359606 0.62707  -0.141653359375
 N1 0.941441 0.140407 0.87301  -0.141653359375
 N1 0.5817 0.372928 0.85971  -0.141653359375
 N1 0.314582 0.126886 0.64037  -0.141653359375
 N1 0.058576 0.127035 0.85956  -0.141653359375
 N1 0.545136 0.373015 0.6403  -0.141653359375
 N1 0.685351 0.359596 0.87317  -0.141653359375
 N1 0.418284 0.140276 0.62709  -0.141653359375
 N1 0.545221 0.64041 0.37297  -0.141653359375
 N1 0.058533 0.859589 0.12698  -0.141653359375
 N1 0.418282 0.627057 0.14031  -0.141653359375
 N1 0.685371 0.873141 0.35964  -0.141653359375
 N1 0.941403 0.872947 0.14044  -0.141653359375
 N1 0.454845 0.626988 0.35963  -0.141653359375
 N1 0.314623 0.640391 0.12687  -0.141653359375
 N1 0.581679 0.859722 0.37294  -0.141653359375
