#======================================================================

# CRYSTAL DATA

#----------------------------------------------------------------------

data_VESTA_phase_1


_pd_phase_name                         MOF
_cell_length_a                         13.69400
_cell_length_b                         14.21500
_cell_length_c                         15.96900
_cell_angle_alpha                      90.00200
_cell_angle_beta                       89.98500
_cell_angle_gamma                      89.95300
_symmetry_space_group_name_H-M         "P 1"
_symmetry_Int_Tables_number            1

loop_
_symmetry_equiv_pos_as_xyz
   "x, y, z"

loop_
   _atom_site_label
   _atom_site_fract_x
   _atom_site_fract_y
   _atom_site_fract_z
 _atom_site_charge
 V1 0.4659 0.2343 0.49984  1.87959111111
 V1 0.965898 0.234304 0.49985  1.87959111111
 V1 0.283802 0.763563 0.99989  1.87959111111
 V1 0.783804 0.763558 0.99989  1.87959111111
 V1 0.033819 0.734333 0.00047  1.87959111111
 V1 0.533822 0.734337 0.00046  1.87959111111
 V1 0.215881 0.263621 0.50075  1.87959111111
 V1 0.715882 0.263619 0.50075  1.87959111111
 H1 0.475571 0.927232 0.18984  0.112508611111
 H1 0.975567 0.927292 0.18980  0.112508611111
 H1 0.286031 0.969491 0.18064  0.112508611111
 H1 0.786011 0.969583 0.18056  0.112508611111
 H1 0.463222 0.043142 0.30811  0.112508611111
 H1 0.96322 0.043205 0.30807  0.112508611111
 H1 0.273691 0.085391 0.29893  0.112508611111
 H1 0.77367 0.085482 0.29885  0.112508611111
 H1 0.273923 0.072372 0.69136  0.112508611111
 H1 0.77395 0.072305 0.69129  0.112508611111
 H1 0.463766 0.028583 0.68076  0.112508611111
 H1 0.963769 0.028514 0.68071  0.112508611111
 H1 0.286472 0.954841 0.80833  0.112508611111
 H1 0.786502 0.954775 0.8082  0.112508611111
 H1 0.476307 0.911066 0.79776  0.112508611111
 H1 0.976307 0.910996 0.79771  0.112508611111
 H1 0.023975 0.426457 0.31017  0.112508611111
 H1 0.523964 0.426374 0.31010  0.112508611111
 H1 0.213405 0.468646 0.31875  0.112508611111
 H1 0.713426 0.468762 0.31886  0.112508611111
 H1 0.036726 0.543855 0.19313  0.112508611111
 H1 0.536725 0.543777 0.19306  0.112508611111
 H1 0.226172 0.586053 0.20171  0.112508611111
 H1 0.726185 0.586166 0.20182  0.112508611111
 H1 0.225881 0.571995 0.81006  0.112508611111
 H1 0.72587 0.571897 0.81015  0.112508611111
 H1 0.036101 0.527699 0.81980  0.112508611111
 H1 0.536112 0.527778 0.81974  0.112508611111
 H1 0.213193 0.456074 0.69183  0.112508611111
 H1 0.713177 0.455976 0.69192  0.112508611111
 H1 0.023404 0.411758 0.70159  0.112508611111
 H1 0.52342 0.411837 0.70152  0.112508611111
 C1 0.138757 0.871021 0.11010  0.727631111111
 C1 0.638755 0.871024 0.11009  0.727631111111
 C2 0.131513 0.941504 0.17874  -0.122443888889
 C2 0.631507 0.941518 0.17872  -0.122443888889
 C3 0.04016 0.962542 0.21413  -0.0570563888889
 C3 0.540161 0.962514 0.21414  -0.0570563888889
 C3 0.215836 0.986148 0.20906  -0.0570563888889
 C3 0.715822 0.986205 0.20901  -0.0570563888889
 C1 0.110799 0.138266 0.38130  0.727631111111
 C1 0.610797 0.138269 0.38129  0.727631111111
 C2 0.117785 0.070826 0.31027  -0.122443888889
 C2 0.617779 0.070838 0.3102  -0.122443888889
 C3 0.03337 0.026744 0.27949  -0.0570563888889
 C3 0.53337 0.026715 0.27951  -0.0570563888889
 C3 0.209046 0.050356 0.27444  -0.0570563888889
 C3 0.709031 0.050411 0.27439  -0.0570563888889
 C1 0.110963 0.12844 0.6114  0.727631111111
 C1 0.610971 0.128439 0.61148  0.727631111111
 C2 0.11812 0.057419 0.67966  -0.122443888889
 C2 0.618133 0.057419 0.67965  -0.122443888889
 C3 0.20944 0.036409 0.715  -0.0570563888889
 C3 0.709461 0.036374 0.71506  -0.0570563888889
 C3 0.033924 0.011879 0.70918  -0.0570563888889
 C3 0.533931 0.011919 0.70920  -0.0570563888889
 C1 0.138937 0.858067 0.88009  0.727631111111
 C1 0.638954 0.85807 0.88009  0.727631111111
 C2 0.132062 0.926238 0.80964  -0.122443888889
 C2 0.63208 0.926238 0.8096  -0.122443888889
 C3 0.216351 0.971279 0.77971  -0.0570563888889
 C3 0.716375 0.971242 0.77967  -0.0570563888889
 C3 0.040832 0.946746 0.77381  -0.0570563888889
 C3 0.540842 0.946784 0.77383  -0.0570563888889
 C1 0.360677 0.369549 0.3890  0.727631111111
 C1 0.860684 0.369595 0.38912  0.727631111111
 C2 0.36796 0.440527 0.32085  -0.122443888889
 C2 0.867974 0.440608 0.32092  -0.122443888889
 C3 0.459431 0.461958 0.28592  -0.0570563888889
 C3 0.959444 0.462043 0.28600  -0.0570563888889
 C3 0.283712 0.4856 0.29073  -0.0570563888889
 C3 0.783729 0.485705 0.29083  -0.0570563888889
 C1 0.389064 0.639791 0.12029  0.727631111111
 C1 0.889067 0.639829 0.12033  0.727631111111
 C2 0.382127 0.571618 0.19075  -0.122443888889
 C2 0.882135 0.571695 0.19082  -0.122443888889
 C3 0.46646 0.527033 0.22126  -0.0570563888889
 C3 0.96647 0.527115 0.22134  -0.0570563888889
 C3 0.290741 0.550682 0.22607  -0.0570563888889
 C3 0.790755 0.550785 0.22617  -0.0570563888889
 C1 0.388954 0.627041 0.89012  0.727631111111
 C1 0.888953 0.627004 0.89015  0.727631111111
 C2 0.381695 0.556706 0.821  -0.122443888889
 C2 0.881687 0.55663 0.82146  -0.122443888889
 C3 0.290335 0.536277 0.78585  -0.0570563888889
 C3 0.790324 0.536185 0.78593  -0.0570563888889
 C3 0.465899 0.511564 0.79123  -0.0570563888889
 C3 0.96589 0.511484 0.79130  -0.0570563888889
 C1 0.360666 0.359769 0.61913  0.727631111111
 C1 0.860661 0.359729 0.61917  0.727631111111
 C2 0.367641 0.427386 0.6899  -0.122443888889
 C2 0.867629 0.427314 0.69005  -0.122443888889
 C3 0.283359 0.472073 0.72052  -0.0570563888889
 C3 0.783345 0.471982 0.72060  -0.0570563888889
 C3 0.458921 0.447342 0.72590  -0.0570563888889
 C3 0.958909 0.447262 0.72597  -0.0570563888889
 O1 0.354604 0.193325 0.49821  -0.760618888889
 O1 0.854608 0.193313 0.49820  -0.760618888889
 O2 0.223963 0.850811 0.082  -0.637788888889
 O2 0.723961 0.85082 0.0828  -0.637788888889
 O2 0.025712 0.156746 0.40969  -0.637788888889
 O2 0.525712 0.156735 0.40970  -0.637788888889
 O2 0.058741 0.835193 0.08381  -0.637788888889
 O2 0.55874 0.835188 0.08381  -0.637788888889
 O2 0.190885 0.172704 0.40891  -0.637788888889
 O2 0.690882 0.172716 0.40889  -0.637788888889
 O1 0.395047 0.804606 0.9971  -0.760618888889
 O1 0.895052 0.804591 0.99713  -0.760618888889
 O2 0.025944 0.148346 0.5837  -0.637788888889
 O2 0.52595 0.148353 0.58373  -0.637788888889
 O2 0.223818 0.839661 0.90890  -0.637788888889
 O2 0.723834 0.839657 0.90890  -0.637788888889
 O2 0.191071 0.164859 0.58601  -0.637788888889
 O2 0.691079 0.164851 0.58  -0.637788888889
 O2 0.058753 0.823061 0.9069  -0.637788888889
 O2 0.558768 0.823069 0.90695  -0.637788888889
 O1 0.145106 0.693232 0.0031  -0.760618888889
 O1 0.645112 0.693243 0.00318  -0.760618888889
 O2 0.27558 0.34944 0.41650  -0.637788888889
 O2 0.77558 0.34945 0.41651  -0.637788888889
 O2 0.473959 0.658274 0.09158  -0.637788888889
 O2 0.973962 0.658294 0.09161  -0.637788888889
 O2 0.440764 0.333347 0.41498  -0.637788888889
 O2 0.940767 0.333387 0.41503  -0.637788888889
 O2 0.308863 0.674753 0.09329  -0.637788888889
 O2 0.808862 0.67476 0.09331  -0.637788888889
 O1 0.104519 0.304585 0.50258  -0.760618888889
 O1 0.604522 0.30459 0.50257  -0.760618888889
 O2 0.474108 0.647083 0.91741  -0.637788888889
 O2 0.974108 0.647056 0.91744  -0.637788888889
 O2 0.275686 0.341467 0.59053  -0.637788888889
 O2 0.775687 0.341459 0.59054  -0.637788888889
 O2 0.308866 0.662879 0.91642  -0.637788888889
 O2 0.808867 0.662866 0.91644  -0.637788888889
 O2 0.440808 0.324961 0.5918  -0.637788888889
 O2 0.940808 0.32493 0.59190  -0.637788888889
