#======================================================================

# CRYSTAL DATA

#----------------------------------------------------------------------

data_VESTA_phase_1


_pd_phase_name                         MOF
_cell_length_a                         16.33400
_cell_length_b                         16.34300
_cell_length_c                         16.34400
_cell_angle_alpha                      92.27600
_cell_angle_beta                       92.42500
_cell_angle_gamma                      92.39400
_symmetry_space_group_name_H-M         "P 1"
_symmetry_Int_Tables_number            1

loop_
_symmetry_equiv_pos_as_xyz
   "x, y, z"

loop_
   _atom_site_label
   _atom_site_fract_x
   _atom_site_fract_y
   _atom_site_fract_z
 _atom_site_charge
 In1 0.742133 0.156014 0.41064  1.77242405303
 In1 0.409307 0.741569 0.15805  1.77242405303
 In1 0.156707 0.408264 0.74336  1.77242405303
 In1 0.842965 0.256265 0.59174  1.77242405303
 In1 0.257691 0.58938 0.84382  1.77242405303
 In1 0.590608 0.842223 0.25823  1.77242405303
 In2 0.665848 0.332252 0.50084  1.7456407197
 In2 0.50007 0.665545 0.33478  1.7456407197
 In2 0.333741 0.499089 0.66758  1.7456407197
 H1 0.500142 0.028453 0.38736  0.117067525253
 H1 0.357953 0.977478 0.34262  0.117067525253
 H1 0.275175 0.223889 0.36344  0.117067525253
 H1 0.416045 0.27383 0.41150  0.117067525253
 H1 0.965894 0.122502 0.28367  0.117067525253
 H1 0.099913 0.07215 0.23550  0.117067525253
 H1 0.211686 0.130568 0.47517  0.117067525253
 H1 0.079443 0.182927 0.52134  0.117067525253
 H1 0.664834 0.229028 0.17285  0.117067525253
 H1 0.622256 0.272461 0.03322  0.117067525253
 H1 0.592882 0.517377 0.13137  0.117067525253
 H1 0.631065 0.47299 0.27129  0.117067525253
 H1 0.388088 0.500757 0.03101  0.117067525253
 H1 0.34359 0.359088 0.97905  0.117067525253
 H1 0.363651 0.274337 0.22493  0.117067525253
 H1 0.41145 0.414749 0.27594  0.117067525253
 H1 0.28144 0.966353 0.1216  0.117067525253
 H1 0.234722 0.101051 0.0715  0.117067525253
 H1 0.475171 0.210374 0.13209  0.117067525253
 H1 0.519919 0.077426 0.1841  0.117067525253
 H1 0.172783 0.663326 0.23087  0.117067525253
 H1 0.0331 0.619501 0.27316  0.117067525253
 H1 0.130067 0.591577 0.51906  0.117067525253
 H1 0.270111 0.630917 0.47584  0.117067525253
 H1 0.028868 0.386576 0.50164  0.117067525253
 H1 0.977759 0.342389 0.35952  0.117067525253
 H1 0.224243 0.364146 0.27672  0.117067525253
 H1 0.274319 0.411883 0.4174  0.117067525253
 H1 0.121581 0.281263 0.96806  0.117067525253
 H1 0.071203 0.234359 0.1025  0.117067525253
 H1 0.131465 0.474554 0.21190  0.117067525253
 H1 0.183807 0.519442 0.0791  0.117067525253
 H1 0.22874 0.172515 0.66357  0.117067525253
 H1 0.270451 0.032748 0.61979  0.117067525253
 H1 0.516751 0.128646 0.59192  0.117067525253
 H1 0.474133 0.268837 0.63132  0.117067525253
 H1 0.97118 0.497825 0.61328  0.117067525253
 H1 0.022231 0.639969 0.65742  0.117067525253
 H1 0.77567 0.722743 0.63575  0.117067525253
 H1 0.725653 0.581939 0.58807  0.117067525253
 H1 0.878605 0.031502 0.71866  0.117067525253
 H1 0.928874 0.896886 0.76554  0.117067525253
 H1 0.868251 0.787602 0.5253  0.117067525253
 H1 0.815999 0.920459 0.4805  0.117067525253
 H1 0.770725 0.336283 0.82687  0.117067525253
 H1 0.729484 0.380019 0.96679  0.117067525253
 H1 0.482908 0.408058 0.87158  0.117067525253
 H1 0.525056 0.368701 0.73123  0.117067525253
 H1 0.499667 0.612428 0.97129  0.117067525253
 H1 0.641786 0.65718 0.02229  0.117067525253
 H1 0.724603 0.636406 0.77597  0.117067525253
 H1 0.583789 0.588248 0.72596  0.117067525253
 H1 0.033823 0.716302 0.87751  0.117067525253
 H1 0.89978 0.764456 0.92782  0.117067525253
 H1 0.788174 0.524743 0.86940  0.117067525253
 H1 0.920443 0.478607 0.81707  0.117067525253
 H1 0.335215 0.827184 0.77094  0.117067525253
 H1 0.377828 0.96677 0.72747  0.117067525253
 H1 0.407363 0.868451 0.48266  0.117067525253
 H1 0.369079 0.728603 0.52707  0.117067525253
 H1 0.612936 0.969209 0.49973  0.117067525253
 H1 0.656769 0.021139 0.64161  0.117067525253
 H1 0.636347 0.775176 0.72615  0.117067525253
 H1 0.588993 0.724254 0.58556  0.117067525253
 H1 0.717813 0.877734 0.03418  0.117067525253
 H1 0.764865 0.928255 0.89983  0.117067525253
 H1 0.524616 0.868159 0.7897  0.117067525253
 H1 0.479568 0.815579 0.92236  0.117067525253
 H1 0.827222 0.769122 0.33642  0.117067525253
 H1 0.966892 0.726807 0.38040  0.117067525253
 H1 0.869936 0.480964 0.40844  0.117067525253
 H1 0.729895 0.524229 0.36900  0.117067525253
 C1 0.549988 0.18521 0.43219  0.731817386364
 C2 0.466748 0.154406 0.40280  -0.217109280303
 C3 0.450676 0.070857 0.38257  -0.102847474747
 C3 0.371882 0.042231 0.3576  -0.102847474747
 C4 0.309094 0.097474 0.35139  0.295877386364
 C3 0.324505 0.181419 0.36924  -0.102847474747
 C3 0.402965 0.209132 0.39575  -0.102847474747
 C1 0.935351 0.185018 0.4344  0.731817386364
 C2 0.014671 0.156037 0.40531  -0.217109280303
 C3 0.020252 0.124383 0.32476  -0.102847474747
 C3 0.09414 0.09647 0.29792  -0.102847474747
 C4 0.162767 0.09916 0.35220  0.295877386364
 C3 0.158126 0.129625 0.43312  -0.102847474747
 C3 0.0843 0.158525 0.45887  -0.102847474747
 C1 0.673874 0.319491 0.31436  0.731817386364
 C2 0.651328 0.347875 0.23118  -0.217109280303
 C3 0.64899 0.292124 0.16328  -0.102847474747
 C3 0.625644 0.316317 0.08533  -0.102847474747
 C4 0.605812 0.397912 0.07466  0.295877386364
 C3 0.608747 0.454405 0.14142  -0.102847474747
 C3 0.630504 0.429234 0.21931  -0.102847474747
 C1 0.432091 0.549598 0.1881  0.731817386364
 C2 0.403133 0.466465 0.15685  -0.217109280303
 C3 0.383221 0.450996 0.07312  -0.102847474747
 C3 0.358373 0.372451 0.0439  -0.102847474747
 C4 0.351911 0.309203 0.09868  0.295877386364
 C3 0.369564 0.323966 0.18277  -0.102847474747
 C3 0.395955 0.40222 0.21109  -0.102847474747
 C1 0.431901 0.93407 0.18522  0.731817386364
 C2 0.403426 0.013786 0.15629  -0.217109280303
 C3 0.323059 0.020295 0.12408  -0.102847474747
 C3 0.296994 0.094603 0.09628  -0.102847474747
 C4 0.351856 0.162771 0.09963  0.295877386364
 C3 0.432612 0.157203 0.13064  -0.102847474747
 C3 0.457579 0.082963 0.15939  -0.102847474747
 C1 0.31383 0.673449 0.322  0.731817386364
 C2 0.23056 0.650505 0.35029  -0.217109280303
 C3 0.162938 0.647488 0.29392  -0.102847474747
 C3 0.084977 0.623442 0.31746  -0.102847474747
 C4 0.07397 0.603626 0.39901  0.295877386364
 C3 0.140381 0.607365 0.45612  -0.102847474747
 C3 0.218354 0.62978 0.43160  -0.102847474747
 C1 0.185667 0.431053 0.55175  0.731817386364
 C2 0.154897 0.402494 0.46829  -0.217109280303
 C3 0.071272 0.382186 0.45219  -0.102847474747
 C3 0.042566 0.357501 0.3734  -0.102847474747
 C4 0.097782 0.351511 0.31068  0.295877386364
 C3 0.181774 0.369666 0.32603  -0.102847474747
 C3 0.209568 0.395989 0.4044  -0.102847474747
 C1 0.185202 0.43159 0.93610  0.731817386364
 C2 0.156109 0.403051 0.01559  -0.217109280303
 C3 0.123903 0.322726 0.02198  -0.102847474747
 C3 0.095976 0.29659 0.09617  -0.102847474747
 C4 0.099221 0.351373 0.16427  0.295877386364
 C3 0.130175 0.432095 0.1587  -0.102847474747
 C3 0.159062 0.457129 0.08467  -0.102847474747
 C1 0.320947 0.313039 0.67396  0.731817386364
 C2 0.348423 0.229759 0.65080  -0.217109280303
 C3 0.291751 0.162423 0.64777  -0.102847474747
 C3 0.314963 0.084425 0.62376  -0.102847474747
 C4 0.396461 0.073132 0.60397  0.295877386364
 C3 0.453868 0.139255 0.60770  -0.102847474747
 C3 0.429693 0.21727 0.63011  -0.102847474747
 C1 0.814333 0.447729 0.5689  0.731817386364
 C2 0.845117 0.531167 0.59744  -0.217109280303
 C3 0.928748 0.547261 0.6177  -0.102847474747
 C3 0.95742 0.62602 0.64236  -0.102847474747
 C4 0.902163 0.688772 0.64837  0.295877386364
 C3 0.818164 0.673433 0.63024  -0.102847474747
 C3 0.790404 0.594975 0.60395  -0.102847474747
 C1 0.81487 0.06358 0.56838  0.731817386364
 C2 0.8439 0.983988 0.59688  -0.217109280303
 C3 0.876178 0.977549 0.67719  -0.102847474747
 C3 0.904057 0.903313 0.70332  -0.102847474747
 C4 0.900704 0.835202 0.64854  0.295877386364
 C3 0.869655 0.840734 0.56784  -0.102847474747
 C3 0.84082 0.914895 0.54282  -0.102847474747
 C1 0.678167 0.326039 0.68660  0.731817386364
 C2 0.650878 0.349146 0.76995  -0.217109280303
 C3 0.707753 0.3521 0.83715  -0.102847474747
 C3 0.684799 0.37608 0.91524  -0.102847474747
 C4 0.60335 0.395922 0.92676  0.295877386364
 C3 0.545743 0.392235 0.86079  -0.102847474747
 C3 0.569658 0.369854 0.78268  -0.102847474747
 C1 0.449815 0.567538 0.81457  0.731817386364
 C2 0.533057 0.596953 0.84535  -0.217109280303
 C3 0.549116 0.617207 0.928  -0.102847474747
 C3 0.627888 0.642205 0.95756  -0.102847474747
 C4 0.690675 0.648468 0.90237  0.295877386364
 C3 0.675278 0.630592 0.81842  -0.102847474747
 C3 0.59684 0.604019 0.79066  -0.102847474747
 C1 0.064456 0.565563 0.81497  0.731817386364
 C2 0.985121 0.594662 0.84396  -0.217109280303
 C3 0.979491 0.675206 0.8756  -0.102847474747
 C3 0.905591 0.702035 0.90351  -0.102847474747
 C4 0.837003 0.647729 0.90080  0.295877386364
 C3 0.841704 0.566808 0.8703  -0.102847474747
 C3 0.91554 0.541076 0.84147  -0.102847474747
 C1 0.326118 0.685638 0.68050  0.731817386364
 C2 0.348762 0.768787 0.65214  -0.217109280303
 C3 0.3511 0.836714 0.70786  -0.102847474747
 C3 0.37447 0.914634 0.68365  -0.102847474747
 C4 0.394327 0.92525 0.60207  0.295877386364
 C3 0.391461 0.858462 0.54562  -0.102847474747
 C3 0.369658 0.780598 0.5708  -0.102847474747
 C1 0.569214 0.812124 0.45058  0.731817386364
 C2 0.59766 0.843368 0.53392  -0.217109280303
 C3 0.617531 0.927085 0.54950  -0.102847474747
 C3 0.642022 0.95626 0.62815  -0.102847474747
 C4 0.648249 0.901429 0.69137  0.295877386364
 C3 0.630609 0.81736 0.67652  -0.102847474747
 C3 0.604482 0.789088 0.59817  -0.102847474747
 C1 0.567607 0.813921 0.06587  0.731817386364
 C2 0.59597 0.843223 0.9863  -0.217109280303
 C3 0.676341 0.875493 0.98015  -0.102847474747
 C3 0.70257 0.903521 0.90604  -0.102847474747
 C4 0.647859 0.900359 0.83774  0.295877386364
 C3 0.567061 0.869403 0.84301  -0.102847474747
 C3 0.541927 0.84038 0.91707  -0.102847474747
 C1 0.686189 0.677631 0.32624  0.731817386364
 C2 0.769444 0.649746 0.34931  -0.217109280303
 C3 0.837061 0.706082 0.35232  -0.102847474747
 C3 0.915018 0.682525 0.37645  -0.102847474747
 C4 0.926036 0.600986 0.39633  0.295877386364
 C3 0.859621 0.543901 0.39261  -0.102847474747
 C3 0.781649 0.568443 0.37013  -0.102847474747
 C5 0.688534 0.999527 0.31212  0.41118405303
 C5 0.311274 0.687023 0.00065  0.41118405303
 C5 0.999811 0.309927 0.69003  0.41118405303
 O1 0.555856 0.260736 0.45875  -0.628940232684
 O1 0.608124 0.135431 0.43032  -0.628940232684
 O2 0.23294 0.065829 0.32295  -0.270179280303
 O1 0.937199 0.218693 0.50669  -0.628940232684
 O1 0.872673 0.173987 0.38482  -0.628940232684
 O1 0.66669 0.371673 0.375  -0.628940232684
 O1 0.697717 0.246647 0.31940  -0.628940232684
 O1 0.735827 0.062066 0.31215  -0.628940232684
 O1 0.458237 0.555351 0.26391  -0.628940232684
 O1 0.43029 0.607939 0.13858  -0.628940232684
 O2 0.323374 0.233403 0.06633  -0.270179280303
 O1 0.503989 0.935152 0.21932  -0.628940232684
 O1 0.381868 0.871748 0.1735  -0.628940232684
 O1 0.374568 0.666481 0.37487  -0.628940232684
 O1 0.318969 0.697244 0.24954  -0.628940232684
 O1 0.310616 0.733311 0.06371  -0.628940232684
 O1 0.26103 0.458331 0.55799  -0.628940232684
 O1 0.135801 0.427697 0.60973  -0.628940232684
 O2 0.065885 0.322846 0.23478  -0.270179280303
 O1 0.219203 0.503713 0.93742  -0.628940232684
 O1 0.173936 0.381641 0.87383  -0.628940232684
 O1 0.373654 0.373574 0.66687  -0.628940232684
 O1 0.248306 0.318442 0.69811  -0.628940232684
 O1 0.062913 0.309112 0.73650  -0.628940232684
 O1 0.738973 0.441529 0.54166  -0.628940232684
 O1 0.864181 0.389699 0.57238  -0.628940232684
 O2 0.934027 0.764662 0.67708  -0.270179280303
 O1 0.780873 0.062417 0.49626  -0.628940232684
 O1 0.826168 0.125799 0.61841  -0.628940232684
 O1 0.625394 0.333307 0.62609  -0.628940232684
 O1 0.750753 0.301815 0.68106  -0.628940232684
 O1 0.936808 0.263335 0.69091  -0.628940232684
 O1 0.443907 0.540843 0.73908  -0.628940232684
 O1 0.391711 0.569518 0.86435  -0.628940232684
 O2 0.766798 0.676971 0.93408  -0.270179280303
 O1 0.062643 0.493322 0.78128  -0.628940232684
 O1 0.127078 0.615222 0.8260  -0.628940232684
 O1 0.333258 0.624904 0.62831  -0.628940232684
 O1 0.30226 0.680629 0.75333  -0.628940232684
 O1 0.264075 0.687584 0.93807  -0.628940232684
 O1 0.542083 0.73671 0.44476  -0.628940232684
 O1 0.57259 0.861672 0.39228  -0.628940232684
 O2 0.676574 0.933732 0.76726  -0.270179280303
 O1 0.495728 0.779318 0.06472  -0.628940232684
 O1 0.617669 0.825632 0.1281  -0.628940232684
 O1 0.625431 0.625236 0.33343  -0.628940232684
 O1 0.680979 0.75034 0.30209  -0.628940232684
 O1 0.688096 0.937505 0.26426  -0.628940232684
 O3 0.751494 0.246505 0.50145  -1.29076594697
 O3 0.499105 0.752239 0.24990  -1.29076594697
 O3 0.247722 0.498979 0.75293  -1.29076594697
 O2 0.576653 0.42602 0.00077  -0.270179280303
 O2 1.6e-05 0.57367 0.42630  -0.270179280303
 O2 0.423396 0.999164 0.57395  -0.270179280303
