#======================================================================

# CRYSTAL DATA

#----------------------------------------------------------------------

data_VESTA_phase_1


_pd_phase_name                         MOF
_cell_length_a                         20.25500
_cell_length_b                         18.42100
_cell_length_c                         18.54200
_cell_angle_alpha                      89.99900
_cell_angle_beta                       90.02300
_cell_angle_gamma                      89.94700
_symmetry_space_group_name_H-M         "P 1"
_symmetry_Int_Tables_number            1

loop_
_symmetry_equiv_pos_as_xyz
   "x, y, z"

loop_
   _atom_site_label
   _atom_site_fract_x
   _atom_site_fract_y
   _atom_site_fract_z
 _atom_site_charge
 Zn1 0.464161 0.937624 0.67814  1.08112087963
 Zn1 0.964154 0.937624 0.67814  1.08112087963
 Zn1 0.058685 0.034309 0.78443  1.08112087963
 Zn1 0.558678 0.03431 0.78443  1.08112087963
 Zn1 0.285864 0.437809 0.82177  1.08112087963
 Zn1 0.785857 0.437809 0.82177  1.08112087963
 Zn1 0.191269 0.534224 0.71543  1.08112087963
 Zn1 0.691261 0.534224 0.71543  1.08112087963
 Zn1 0.035809 0.562327 0.6781  1.08112087963
 Zn1 0.535802 0.562326 0.6781  1.08112087963
 Zn1 0.44128 0.465724 0.78452  1.08112087963
 Zn1 0.941273 0.465724 0.78452  1.08112087963
 Zn1 0.214084 0.062402 0.8218  1.08112087963
 Zn1 0.714077 0.062402 0.8218  1.08112087963
 Zn1 0.308727 0.965756 0.71542  1.08112087963
 Zn1 0.80872 0.965756 0.71542  1.08112087963
 Zn1 0.035832 0.062368 0.32184  1.08112087963
 Zn1 0.535825 0.062367 0.32184  1.08112087963
 Zn1 0.441309 0.965682 0.21555  1.08112087963
 Zn1 0.941302 0.965682 0.21555  1.08112087963
 Zn1 0.21413 0.562183 0.17821  1.08112087963
 Zn1 0.714123 0.562183 0.17821  1.08112087963
 Zn1 0.308725 0.465768 0.28455  1.08112087963
 Zn1 0.808718 0.465768 0.28455  1.08112087963
 Zn1 0.464185 0.437665 0.32182  1.08112087963
 Zn1 0.964178 0.437666 0.32182  1.08112087963
 Zn1 0.058714 0.534267 0.21547  1.08112087963
 Zn1 0.558707 0.534267 0.21547  1.08112087963
 Zn1 0.28591 0.937591 0.17813  1.08112087963
 Zn1 0.785903 0.937591 0.17813  1.08112087963
 Zn1 0.191266 0.034236 0.28456  1.08112087963
 Zn1 0.691259 0.034236 0.28456  1.08112087963
 Zn1 0.999986 0.749971 0.69027  1.08112087963
 Zn1 0.499993 0.749971 0.69027  1.08112087963
 Zn1 0.249768 0.250216 0.8119  1.08112087963
 Zn1 0.749761 0.250216 0.8119  1.08112087963
 Zn1 1e-06 0.250021 0.30972  1.08112087963
 Zn1 0.499994 0.25002 0.30972  1.08112087963
 Zn1 0.250226 0.749776 0.18808  1.08112087963
 Zn1 0.750219 0.749776 0.18808  1.08112087963
 Zn1 0.999999 1e-06 0.49999  1.08112087963
 Zn1 0.499992 1e-06 0.49999  1.08112087963
 Zn1 0.249996 0.499997 0.99999  1.08112087963
 Zn1 0.749991 0.499995 0.  1.08112087963
 Zn1 0.0 0.499996 0.49999  1.08112087963
 Zn1 0.499993 0.499996 0.49999  1.08112087963
 Zn1 0.249996 0.0 0.  1.08112087963
 Zn1 0.74999 0.0 0.  1.08112087963
 H1 0.080466 0.863016 0.52208  0.00136587962963
 H1 0.580455 0.863012 0.52207  0.00136587962963
 H1 0.104753 0.877066 0.82776  0.00136587962963
 H1 0.604743 0.877066 0.82777  0.00136587962963
 H1 0.37865 0.007644 0.86706  0.00136587962963
 H1 0.878642 0.007647 0.86706  0.00136587962963
 H1 0.025744 0.147875 0.66027  0.00136587962963
 H1 0.525734 0.147875 0.66027  0.00136587962963
 H1 0.35404 0.755191 0.69019  0.00136587962963
 H1 0.854032 0.755192 0.69018  0.00136587962963
 H1 0.30551 0.990788 0.5494  0.00136587962963
 H1 0.805503 0.990789 0.5494  0.00136587962963
 H1 0.168595 0.365132 0.97771  0.00136587962963
 H1 0.668586 0.365133 0.97771  0.00136587962963
 H1 0.145817 0.376827 0.67210  0.00136587962963
 H1 0.645809 0.376827 0.67210  0.00136587962963
 H1 0.371408 0.507565 0.63294  0.00136587962963
 H1 0.871401 0.507566 0.63294  0.00136587962963
 H1 0.22381 0.648202 0.83978  0.00136587962963
 H1 0.7238 0.648201 0.83978  0.00136587962963
 H1 0.396021 0.255267 0.81114  0.00136587962963
 H1 0.896015 0.255267 0.81114  0.00136587962963
 H1 0.444585 0.490637 0.95048  0.00136587962963
 H1 0.944577 0.490637 0.95048  0.00136587962963
 H1 0.41953 0.636958 0.52201  0.00136587962963
 H1 0.919525 0.63696 0.52201  0.00136587962963
 H1 0.39529 0.622927 0.82774  0.00136587962963
 H1 0.895277 0.622928 0.82773  0.00136587962963
 H1 0.121404 0.492669 0.86706  0.00136587962963
 H1 0.621396 0.492676 0.8670  0.00136587962963
 H1 0.474051 0.352001 0.66024  0.00136587962963
 H1 0.974043 0.352002 0.66024  0.00136587962963
 H1 0.145943 0.744799 0.68988  0.00136587962963
 H1 0.645936 0.744798 0.6898  0.00136587962963
 H1 0.194433 0.509217 0.54948  0.00136587962963
 H1 0.694426 0.509217 0.54948  0.00136587962963
 H1 0.329816 0.136243 0.9792  0.00136587962963
 H1 0.829808 0.136244 0.97927  0.00136587962963
 H1 0.35474 0.123733 0.67340  0.00136587962963
 H1 0.854732 0.123733 0.67340  0.00136587962963
 H1 0.128513 0.992345 0.63309  0.00136587962963
 H1 0.628506 0.992344 0.63309  0.00136587962963
 H1 0.276177 0.852011 0.83973  0.00136587962963
 H1 0.776167 0.85201 0.83973  0.00136587962963
 H1 0.103762 0.245101 0.80897  0.00136587962963
 H1 0.603755 0.245101 0.80897  0.00136587962963
 H1 0.055418 0.009459 0.95055  0.00136587962963
 H1 0.555411 0.009459 0.95055  0.00136587962963
 H1 0.419531 0.13698 0.47791  0.00136587962963
 H1 0.919529 0.136984 0.47791  0.00136587962963
 H1 0.395236 0.122926 0.17222  0.00136587962963
 H1 0.89523 0.122926 0.17222  0.00136587962963
 H1 0.121343 0.99235 0.13292  0.00136587962963
 H1 0.621337 0.992347 0.13292  0.00136587962963
 H1 0.474249 0.852117 0.3397  0.00136587962963
 H1 0.97424 0.852117 0.3397  0.00136587962963
 H1 0.145957 0.244797 0.3098  0.00136587962963
 H1 0.645951 0.244796 0.30985  0.00136587962963
 H1 0.194482 0.009206 0.45053  0.00136587962963
 H1 0.694475 0.009203 0.45053  0.00136587962963
 H1 0.331395 0.634866 0.02227  0.00136587962963
 H1 0.831387 0.634866 0.02227  0.00136587962963
 H1 0.354174 0.623164 0.32789  0.00136587962963
 H1 0.854165 0.623164 0.32789  0.00136587962963
 H1 0.128587 0.492432 0.36704  0.00136587962963
 H1 0.62858 0.492432 0.36704  0.00136587962963
 H1 0.27618 0.351791 0.1602  0.00136587962963
 H1 0.776173 0.351791 0.1602  0.00136587962963
 H1 0.103974 0.744726 0.18885  0.00136587962963
 H1 0.603966 0.744726 0.18885  0.00136587962963
 H1 0.055409 0.509358 0.04950  0.00136587962963
 H1 0.555402 0.509363 0.04950  0.00136587962963
 H1 0.080466 0.363037 0.47797  0.00136587962963
 H1 0.580454 0.363033 0.47797  0.00136587962963
 H1 0.104706 0.377063 0.17225  0.00136587962963
 H1 0.604703 0.377063 0.17225  0.00136587962963
 H1 0.378588 0.507328 0.13292  0.00136587962963
 H1 0.878583 0.50732 0.13292  0.00136587962963
 H1 0.025938 0.647992 0.33974  0.00136587962963
 H1 0.525928 0.647992 0.33974  0.00136587962963
 H1 0.354049 0.255195 0.31012  0.00136587962963
 H1 0.854043 0.255196 0.31012  0.00136587962963
 H1 0.305561 0.490778 0.45050  0.00136587962963
 H1 0.805554 0.490776 0.45050  0.00136587962963
 H1 0.170171 0.863754 0.02072  0.00136587962963
 H1 0.670164 0.863755 0.0207  0.00136587962963
 H1 0.145262 0.876258 0.32660  0.00136587962963
 H1 0.645253 0.876258 0.326  0.00136587962963
 H1 0.37148 0.007649 0.36690  0.00136587962963
 H1 0.871473 0.007648 0.36690  0.00136587962963
 H1 0.223809 0.147982 0.16025  0.00136587962963
 H1 0.7238 0.147982 0.16025  0.00136587962963
 H1 0.396231 0.754892 0.1910  0.00136587962963
 H1 0.896224 0.754891 0.19102  0.00136587962963
 H1 0.444575 0.990538 0.04944  0.00136587962963
 H1 0.944568 0.990539 0.04944  0.00136587962963
 C1 0.050288 0.859812 0.57146  0.695896087963
 C1 0.550279 0.85981 0.57146  0.695896087963
 C1 0.068427 0.865314 0.78468  0.695896087963
 C1 0.568422 0.865314 0.78468  0.695896087963
 C1 0.012255 0.094352 0.63766  0.695896087963
 C1 0.512247 0.094352 0.63766  0.695896087963
 C1 0.419365 0.002131 0.82794  0.695896087963
 C1 0.919358 0.00213 0.82794  0.695896087963
 C1 0.363217 0.814029 0.69390  0.695896087963
 C1 0.86321 0.814029 0.693  0.695896087963
 C1 0.35922 0.987391 0.55963  0.695896087963
 C1 0.859213 0.987392 0.55963  0.695896087963
 C1 0.199095 0.361467 0.92860  0.695896087963
 C1 0.699087 0.361468 0.92860  0.695896087963
 C1 0.181906 0.365182 0.71547  0.695896087963
 C1 0.681897 0.365182 0.71547  0.695896087963
 C1 0.237609 0.594653 0.86220  0.695896087963
 C1 0.737602 0.594653 0.86220  0.695896087963
 C1 0.330667 0.502045 0.67202  0.695896087963
 C1 0.83066 0.502044 0.67202  0.695896087963
 C1 0.386761 0.314065 0.80673  0.695896087963
 C1 0.886754 0.314065 0.80673  0.695896087963
 C1 0.390872 0.487316 0.94032  0.695896087963
 C1 0.890865 0.487319 0.94032  0.695896087963
 C1 0.449692 0.640152 0.57144  0.695896087963
 C1 0.949687 0.640154 0.57144  0.695896087963
 C1 0.431572 0.634681 0.78465  0.695896087963
 C1 0.93157 0.634681 0.78465  0.695896087963
 C1 0.487651 0.405547 0.63775  0.695896087963
 C1 0.987645 0.405548 0.63775  0.695896087963
 C1 0.08067 0.498011 0.82791  0.695896087963
 C1 0.580663 0.498009 0.82791  0.695896087963
 C1 0.13676 0.685974 0.69379  0.695896087963
 C1 0.636752 0.685973 0.69379  0.695896087963
 C1 0.140726 0.512615 0.55962  0.695896087963
 C1 0.640718 0.512616 0.55962  0.695896087963
 C1 0.299456 0.14012 0.93005  0.695896087963
 C1 0.799449 0.140121 0.93005  0.695896087963
 C1 0.318468 0.13494 0.71666  0.695896087963
 C1 0.818461 0.13494 0.71666  0.695896087963
 C1 0.262449 0.905543 0.8622  0.695896087963
 C1 0.762441 0.905543 0.8622  0.695896087963
 C1 0.169306 0.997892 0.67213  0.695896087963
 C1 0.669298 0.997892 0.67213  0.695896087963
 C1 0.113037 0.18626 0.80528  0.695896087963
 C1 0.61303 0.18626 0.80528  0.695896087963
 C1 0.109114 0.012844 0.94037  0.695896087963
 C1 0.609107 0.012845 0.94037  0.695896087963
 C1 0.449706 0.140181 0.42852  0.695896087963
 C1 0.949702 0.140183 0.42852  0.695896087963
 C1 0.431565 0.134678 0.21530  0.695896087963
 C1 0.931555 0.134678 0.21531  0.695896087963
 C1 0.487737 0.90564 0.36232  0.695896087963
 C1 0.987731 0.90564 0.36232  0.695896087963
 C1 0.080628 0.997863 0.17204  0.695896087963
 C1 0.580621 0.997865 0.17204  0.695896087963
 C1 0.136778 0.185961 0.30611  0.695896087963
 C1 0.636771 0.18596 0.30611  0.695896087963
 C1 0.140772 0.012598 0.44035  0.695896087963
 C1 0.640764 0.012599 0.44035  0.695896087963
 C1 0.300896 0.638529 0.07138  0.695896087963
 C1 0.800891 0.638528 0.07138  0.695896087963
 C1 0.318086 0.63481 0.28451  0.695896087963
 C1 0.818082 0.63481 0.28451  0.695896087963
 C1 0.262384 0.40534 0.13778  0.695896087963
 C1 0.762376 0.40534 0.13778  0.695896087963
 C1 0.169327 0.497949 0.32796  0.695896087963
 C1 0.669319 0.497947 0.32796  0.695896087963
 C1 0.113233 0.685928 0.19325  0.695896087963
 C1 0.613226 0.685927 0.19325  0.695896087963
 C1 0.109121 0.512678 0.05966  0.695896087963
 C1 0.609115 0.512674 0.05966  0.695896087963
 C1 0.050303 0.359842 0.42854  0.695896087963
 C1 0.550292 0.359839 0.42855  0.695896087963
 C1 0.068423 0.36531 0.21534  0.695896087963
 C1 0.568412 0.36531 0.21533  0.695896087963
 C1 0.012341 0.594445 0.36223  0.695896087963
 C1 0.512333 0.594445 0.36223  0.695896087963
 C1 0.419324 0.501983 0.17208  0.695896087963
 C1 0.919316 0.501987 0.17208  0.695896087963
 C1 0.363234 0.314019 0.30619  0.695896087963
 C1 0.863227 0.31402 0.306  0.695896087963
 C1 0.359268 0.487375 0.44036  0.695896087963
 C1 0.859261 0.487377 0.44036  0.695896087963
 C1 0.200537 0.859872 0.06994  0.695896087963
 C1 0.70053 0.859873 0.06994  0.695896087963
 C1 0.181529 0.865052 0.28333  0.695896087963
 C1 0.681521 0.865052 0.28333  0.695896087963
 C1 0.237543 0.09445 0.13777  0.695896087963
 C1 0.737536 0.09445 0.13777  0.695896087963
 C1 0.330688 0.002098 0.32785  0.695896087963
 C1 0.830681 0.002099 0.32785  0.695896087963
 C1 0.386956 0.813733 0.19471  0.695896087963
 C1 0.886949 0.813733 0.19471  0.695896087963
 C1 0.390879 0.987151 0.05962  0.695896087963
 C1 0.890872 0.987153 0.05962  0.695896087963
 O1 0.013846 0.91619 0.58384  -0.651493287037
 O1 0.513839 0.916189 0.58384  -0.651493287037
 O2 0.054812 0.804024 0.6094  -0.58632912037
 O2 0.554803 0.804023 0.60941  -0.58632912037
 O1 0.04412 0.921281 0.75289  -0.651493287037
 O1 0.544111 0.921281 0.75289  -0.651493287037
 O2 0.05564 0.800137 0.77188  -0.58632912037
 O2 0.555632 0.800137 0.77188  -0.58632912037
 O1 0.010523 0.04162 0.6831  -0.651493287037
 O1 0.510516 0.041619 0.6831  -0.651493287037
 O2 1.5e-05 0.090147 0.57167  -0.58632912037
 O2 0.500008 0.090147 0.57167  -0.58632912037
 O1 0.405106 0.972086 0.76742  -0.651493287037
 O1 0.905098 0.972087 0.76742  -0.651493287037
 O2 0.475113 0.025281 0.84712  -0.58632912037
 O2 0.975105 0.025283 0.84712  -0.58632912037
 O1 0.424032 0.83355 0.68768  -0.651493287037
 O1 0.924025 0.833551 0.68768  -0.651493287037
 O2 0.397178 0.99072 0.50634  -0.58632912037
 O2 0.897172 0.99072 0.50634  -0.58632912037
 O2 0.314243 0.854639 0.70362  -0.58632912037
 O2 0.814236 0.85464 0.70362  -0.58632912037
 O1 0.376174 0.980835 0.62629  -0.651493287037
 O1 0.876167 0.980836 0.62629  -0.651493287037
 O1 0.236087 0.417339 0.9163  -0.651493287037
 O1 0.73608 0.417339 0.9163  -0.651493287037
 O2 0.194359 0.305735 0.89065  -0.58632912037
 O2 0.694352 0.305735 0.89065  -0.58632912037
 O1 0.205956 0.421311 0.74722  -0.651493287037
 O1 0.705949 0.421311 0.74722  -0.651493287037
 O2 0.194722 0.300074 0.72861  -0.58632912037
 O2 0.694715 0.300074 0.7286  -0.58632912037
 O1 0.239547 0.54208 0.81652  -0.651493287037
 O1 0.73954 0.54208 0.81652  -0.651493287037
 O2 0.249923 0.590288 0.92816  -0.58632912037
 O2 0.749915 0.590288 0.92816  -0.58632912037
 O1 0.344946 0.472037 0.73258  -0.651493287037
 O1 0.844939 0.472037 0.73258  -0.651493287037
 O2 0.27489 0.525138 0.652  -0.58632912037
 O2 0.774883 0.525138 0.652  -0.58632912037
 O1 0.325934 0.333675 0.8129  -0.651493287037
 O1 0.825927 0.333675 0.8129  -0.651493287037
 O2 0.352912 0.490647 0.99362  -0.58632912037
 O2 0.852905 0.490645 0.99362  -0.58632912037
 O2 0.43569 0.354517 0.79654  -0.58632912037
 O2 0.935683 0.354517 0.79654  -0.58632912037
 O1 0.373906 0.480818 0.87367  -0.651493287037
 O1 0.873899 0.480818 0.87367  -0.651493287037
 O1 0.486141 0.583774 0.58383  -0.651493287037
 O1 0.986134 0.583774 0.58383  -0.651493287037
 O2 0.445143 0.695923 0.6094  -0.58632912037
 O2 0.945137 0.695924 0.6094  -0.58632912037
 O1 0.455863 0.578722 0.75286  -0.651493287037
 O1 0.955853 0.578722 0.75285  -0.651493287037
 O2 0.444381 0.699864 0.77188  -0.58632912037
 O2 0.94437 0.699865 0.77187  -0.58632912037
 O1 0.489423 0.458199 0.6833  -0.651493287037
 O1 0.989416 0.4582 0.68333  -0.651493287037
 O2 0.499953 0.409823 0.57179  -0.58632912037
 O2 0.999946 0.409823 0.57179  -0.58632912037
 O1 0.094897 0.527938 0.76732  -0.651493287037
 O1 0.594889 0.52794 0.7673  -0.651493287037
 O2 0.024957 0.474852 0.84711  -0.58632912037
 O2 0.52495 0.474855 0.8471  -0.58632912037
 O1 0.07593 0.666447 0.68765  -0.651493287037
 O1 0.575923 0.666446 0.68765  -0.651493287037
 O2 0.102768 0.509258 0.50629  -0.58632912037
 O2 0.602761 0.509258 0.50629  -0.58632912037
 O2 0.185748 0.64537 0.70345  -0.58632912037
 O2 0.685741 0.64537 0.70345  -0.58632912037
 O1 0.123759 0.519175 0.6262  -0.651493287037
 O1 0.623752 0.519174 0.6262  -0.651493287037
 O1 0.263779 0.083536 0.91641  -0.651493287037
 O1 0.763772 0.083536 0.91641  -0.651493287037
 O2 0.303124 0.196884 0.89347  -0.58632912037
 O2 0.803116 0.196884 0.89347  -0.58632912037
 O1 0.293925 0.078567 0.74741  -0.651493287037
 O1 0.793918 0.078567 0.74741  -0.651493287037
 O2 0.305924 0.1999 0.73073  -0.58632912037
 O2 0.805917 0.1999 0.73073  -0.58632912037
 O1 0.260533 0.958202 0.8166  -0.651493287037
 O1 0.760526 0.958202 0.8166  -0.651493287037
 O2 0.250157 0.909819 0.92818  -0.58632912037
 O2 0.75015 0.909819 0.92818  -0.58632912037
 O1 0.155073 0.027857 0.73272  -0.651493287037
 O1 0.655066 0.027856 0.73272  -0.651493287037
 O2 0.225073 0.974863 0.65284  -0.58632912037
 O2 0.725066 0.974863 0.65284  -0.58632912037
 O1 0.173762 0.166663 0.81269  -0.651493287037
 O1 0.673755 0.166663 0.81269  -0.651493287037
 O2 0.147137 0.00929 0.99363  -0.58632912037
 O2 0.64713 0.009289 0.99363  -0.58632912037
 O2 0.064241 0.145739 0.79453  -0.58632912037
 O2 0.564235 0.145739 0.79453  -0.58632912037
 O1 0.126 0.019588 0.87373  -0.651493287037
 O1 0.625992 0.019589 0.87373  -0.651493287037
 O1 0.486147 0.083803 0.41615  -0.651493287037
 O1 0.986141 0.083804 0.41615  -0.651493287037
 O2 0.445182 0.195969 0.39057  -0.58632912037
 O2 0.945178 0.195971 0.39057  -0.58632912037
 O1 0.455873 0.078711 0.24710  -0.651493287037
 O1 0.955868 0.078711 0.247  -0.651493287037
 O2 0.444353 0.199855 0.22810  -0.58632912037
 O2 0.944348 0.199855 0.22810  -0.58632912037
 O1 0.48947 0.958372 0.31683  -0.651493287037
 O1 0.989462 0.958373 0.31683  -0.651493287037
 O2 0.499978 0.909845 0.42831  -0.58632912037
 O2 0.999971 0.909845 0.42831  -0.58632912037
 O1 0.094888 0.027906 0.23257  -0.651493287037
 O1 0.594881 0.027905 0.23257  -0.651493287037
 O2 0.024881 0.97471 0.1528  -0.58632912037
 O2 0.524874 0.974708 0.1528  -0.58632912037
 O1 0.075961 0.166441 0.31230  -0.651493287037
 O1 0.575954 0.16644 0.3123  -0.651493287037
 O2 0.102815 0.009274 0.49364  -0.58632912037
 O2 0.602807 0.009272 0.49364  -0.58632912037
 O2 0.185751 0.145351 0.29637  -0.58632912037
 O2 0.685743 0.14535 0.29638  -0.58632912037
 O1 0.123816 0.019156 0.37369  -0.651493287037
 O1 0.623809 0.019154 0.37369  -0.651493287037
 O1 0.263905 0.582657 0.08367  -0.651493287037
 O1 0.763898 0.582657 0.08367  -0.651493287037
 O2 0.305635 0.69426 0.10933  -0.58632912037
 O2 0.805627 0.69426 0.10933  -0.58632912037
 O1 0.294038 0.578682 0.25277  -0.651493287037
 O1 0.794029 0.578681 0.25277  -0.651493287037
 O2 0.305272 0.699919 0.27138  -0.58632912037
 O2 0.805263 0.699918 0.27138  -0.58632912037
 O1 0.260449 0.457915 0.18346  -0.651493287037
 O1 0.760442 0.457915 0.18346  -0.651493287037
 O2 0.250071 0.409704 0.07182  -0.58632912037
 O2 0.750064 0.409704 0.07182  -0.58632912037
 O1 0.155048 0.527955 0.26740  -0.651493287037
 O1 0.655041 0.527955 0.26740  -0.651493287037
 O2 0.225104 0.474854 0.34719  -0.58632912037
 O2 0.725097 0.474855 0.34719  -0.58632912037
 O1 0.17406 0.666318 0.18704  -0.651493287037
 O1 0.674053 0.666317 0.18704  -0.651493287037
 O2 0.147082 0.509345 0.00637  -0.58632912037
 O2 0.647075 0.509349 0.00637  -0.58632912037
 O2 0.064304 0.645476 0.20345  -0.58632912037
 O2 0.564297 0.645475 0.2034  -0.58632912037
 O1 0.126088 0.519174 0.12631  -0.651493287037
 O1 0.626081 0.519176 0.12631  -0.651493287037
 O1 0.013853 0.41622 0.41615  -0.651493287037
 O1 0.513846 0.416219 0.41615  -0.651493287037
 O2 0.054851 0.304071 0.39058  -0.58632912037
 O2 0.554843 0.30407 0.39058  -0.58632912037
 O1 0.044131 0.421269 0.24713  -0.651493287037
 O1 0.544127 0.421269 0.24713  -0.651493287037
 O2 0.055614 0.300127 0.22811  -0.58632912037
 O2 0.55561 0.300126 0.22811  -0.58632912037
 O1 0.01057 0.541793 0.31665  -0.651493287037
 O1 0.510563 0.541792 0.31665  -0.651493287037
 O2 4e-05 0.590169 0.42819  -0.58632912037
 O2 0.500033 0.590169 0.42819  -0.58632912037
 O1 0.405097 0.472055 0.23266  -0.651493287037
 O1 0.905091 0.472052 0.23266  -0.651493287037
 O2 0.475037 0.525139 0.15287  -0.58632912037
 O2 0.975031 0.525135 0.15287  -0.58632912037
 O1 0.424063 0.333545 0.31234  -0.651493287037
 O1 0.924057 0.333546 0.31234  -0.651493287037
 O2 0.397226 0.490735 0.493  -0.58632912037
 O2 0.897219 0.490734 0.49370  -0.58632912037
 O2 0.314246 0.354623 0.29653  -0.58632912037
 O2 0.814239 0.354623 0.29653  -0.58632912037
 O1 0.376235 0.480818 0.37374  -0.651493287037
 O1 0.876227 0.480817 0.37374  -0.651493287037
 O1 0.236212 0.916458 0.08358  -0.651493287037
 O1 0.736205 0.916458 0.08358  -0.651493287037
 O2 0.196868 0.80311 0.10652  -0.58632912037
 O2 0.696861 0.80311 0.10652  -0.58632912037
 O1 0.206067 0.921425 0.25258  -0.651493287037
 O1 0.706061 0.921425 0.25258  -0.651493287037
 O2 0.194071 0.800091 0.26925  -0.58632912037
 O2 0.694064 0.800091 0.26925  -0.58632912037
 O1 0.239462 0.041793 0.18332  -0.651493287037
 O1 0.739455 0.041793 0.18332  -0.651493287037
 O2 0.249835 0.090172 0.07180  -0.58632912037
 O2 0.749827 0.090172 0.07180  -0.58632912037
 O1 0.344921 0.972134 0.26727  -0.651493287037
 O1 0.844914 0.972134 0.26727  -0.651493287037
 O2 0.27492 0.025129 0.34714  -0.58632912037
 O2 0.774913 0.025129 0.34714  -0.58632912037
 O1 0.326232 0.83333 0.18729  -0.651493287037
 O1 0.826225 0.83333 0.18729  -0.651493287037
 O2 0.352856 0.990702 0.0063  -0.58632912037
 O2 0.852849 0.990702 0.0063  -0.58632912037
 O2 0.435752 0.854254 0.20545  -0.58632912037
 O2 0.935745 0.854253 0.2054  -0.58632912037
 O1 0.373993 0.980405 0.12626  -0.651493287037
 O1 0.873986 0.980404 0.12626  -0.651493287037
