#======================================================================

# CRYSTAL DATA

#----------------------------------------------------------------------

data_VESTA_phase_1


_pd_phase_name                         MOF
_cell_length_a                         13.64200
_cell_length_b                         14.78800
_cell_length_c                         15.13700
_cell_angle_alpha                      90.00000
_cell_angle_beta                       90.00100
_cell_angle_gamma                      90.00000
_symmetry_space_group_name_H-M         "P 1"
_symmetry_Int_Tables_number            1

loop_
_symmetry_equiv_pos_as_xyz
   "x, y, z"

loop_
   _atom_site_label
   _atom_site_fract_x
   _atom_site_fract_y
   _atom_site_fract_z
 _atom_site_charge
 Sr1 0.420608 0.306156 0.53959  1.6463726087
 Sr1 0.9206 0.30612 0.53958  1.6463726087
 Sr1 0.329412 0.693839 0.03960  1.6463726087
 Sr1 0.829402 0.693767 0.03951  1.6463726087
 Sr1 0.079397 0.806121 0.96046  1.6463726087
 Sr1 0.579396 0.806116 0.96042  1.6463726087
 Sr1 0.170612 0.193788 0.46049  1.6463726087
 Sr1 0.670599 0.193828 0.46041  1.6463726087
 H1 0.37324 0.148711 0.25574  0.104259275362
 H1 0.873114 0.148664 0.2557  0.104259275362
 H1 0.39542 0.033077 0.13747  0.104259275362
 H1 0.895318 0.033068 0.13745  0.104259275362
 H1 0.4856 0.0 0.52199  0.104259275362
 H1 0.985546 0.0 0.52194  0.104259275362
 H1 0.544564 0.72888 0.4435  0.104259275362
 H1 0.0 0.72881 0.44351  0.104259275362
 H1 0.497177 0.765166 0.28945  0.104259275362
 H1 0.997086 0.765115 0.28938  0.104259275362
 H1 0.538293 0.848335 0.55958  0.104259275362
 H1 0.0 0.848258 0.55952  0.104259275362
 H1 0.376807 0.851265 0.75577  0.104259275362
 H1 0.876804 0.851264 0.75576  0.104259275362
 H1 0.354614 0.966891 0.63749  0.104259275362
 H1 0.854627 0.966881 0.63748  0.104259275362
 H1 0.264378 0.996705 0.02196  0.104259275362
 H1 0.764386 0.996723 0.02195  0.104259275362
 H1 0.205491 0.271109 0.94358  0.104259275362
 H1 0.705457 0.271111 0.94354  0.104259275362
 H1 0.252911 0.234826 0.78946  0.104259275362
 H1 0.752853 0.234808 0.78941  0.104259275362
 H1 0.211695 0.151642 0.05955  0.104259275362
 H1 0.711691 0.151662 0.05953  0.104259275362
 H1 0.126937 0.648653 0.24425  0.104259275362
 H1 0.626784 0.648698 0.24426  0.104259275362
 H1 0.104741 0.533071 0.36256  0.104259275362
 H1 0.604589 0.533079 0.36254  0.104259275362
 H1 0.014441 0.503197 0.97810  0.104259275362
 H1 0.514361 0.503276 0.97806  0.104259275362
 H1 0.955555 0.228813 0.05654  0.104259275362
 H1 0.455421 0.228891 0.05646  0.104259275362
 H1 0.002941 0.265135 0.21066  0.104259275362
 H1 0.502836 0.265178 0.21058  0.104259275362
 H1 0.961757 0.34825 0.94054  0.104259275362
 H1 0.46165 0.348345 0.94047  0.104259275362
 H1 0.123147 0.35129 0.7442  0.104259275362
 H1 0.623219 0.35128 0.74423  0.104259275362
 H1 0.145342 0.466895 0.86256  0.104259275362
 H1 0.645395 0.466921 0.86250  0.104259275362
 H1 0.235627 0.496712 0.47807  0.104259275362
 H1 0.735638 0.496683 0.47800  0.104259275362
 H1 0.294529 0.771105 0.55651  0.104259275362
 H1 0.794588 0.771074 0.55641  0.104259275362
 H1 0.247116 0.734806 0.71063  0.104259275362
 H1 0.747154 0.734798 0.71053  0.104259275362
 H1 0.288325 0.651651 0.44050  0.104259275362
 H1 0.788343 0.651614 0.44041  0.104259275362
 C1 0.427046 0.063365 0.35904  -0.0564098913043
 C1 0.926977 0.063316 0.35902  -0.0564098913043
 C1 0.461541 0.975056 0.3830  -0.0564098913043
 C1 0.961471 0.974998 0.38298  -0.0564098913043
 C2 0.400191 0.081423 0.27235  -0.0954207246377
 C2 0.900085 0.081381 0.27234  -0.0954207246377
 C1 0.465915 0.906047 0.31574  -0.0564098913043
 C1 0.965835 0.905997 0.31568  -0.0564098913043
 C3 0.42214 0.140193 0.42254  0.767832608696
 C3 0.922105 0.14014 0.42253  0.767832608696
 C2 0.411307 0.01591 0.20601  -0.0954207246377
 C2 0.911201 0.015883 0.20598  -0.0954207246377
 C1 0.442559 0.929222 0.22641  -0.0564098913043
 C1 0.942491 0.929197 0.22635  -0.0564098913043
 C4 0.451114 0.862368 0.15148  0.779682608696
 C4 0.95114 0.862423 0.15136  0.779682608696
 C2 0.48819 0.951497 0.47097  -0.0954207246377
 C2 0.988126 0.95143 0.47092  -0.0954207246377
 C2 0.521495 0.797172 0.42601  -0.0954207246377
 C2 0.0 0.797106 0.42594  -0.0954207246377
 C2 0.496023 0.817385 0.34010  -0.0954207246377
 C2 0.995934 0.817331 0.34004  -0.0954207246377
 C2 0.517684 0.864834 0.49184  -0.0954207246377
 C2 0.0 0.864764 0.49178  -0.0954207246377
 C1 0.322992 0.936617 0.85906  -0.0564098913043
 C1 0.822952 0.936608 0.85904  -0.0564098913043
 C1 0.288468 0.02492 0.88303  -0.0564098913043
 C1 0.788494 0.024932 0.88302  -0.0564098913043
 C2 0.349842 0.91855 0.77237  -0.0954207246377
 C2 0.84986 0.918555 0.77236  -0.0954207246377
 C1 0.284156 0.093941 0.8157  -0.0564098913043
 C1 0.784078 0.093922 0.8157  -0.0564098913043
 C3 0.327865 0.859783 0.92255  0.767832608696
 C3 0.827863 0.859783 0.92254  0.767832608696
 C2 0.338751 0.984066 0.70603  -0.0954207246377
 C2 0.838721 0.98405 0.70601  -0.0954207246377
 C1 0.307483 0.070751 0.72642  -0.0564098913043
 C1 0.807487 0.070747 0.72639  -0.0564098913043
 C4 0.298897 0.137583 0.6514  0.779682608696
 C4 0.798879 0.137568 0.6514  0.779682608696
 C2 0.26182 0.048482 0.97098  -0.0954207246377
 C2 0.761786 0.048486 0.97095  -0.0954207246377
 C2 0.228556 0.202816 0.92601  -0.0954207246377
 C2 0.728505 0.202813 0.92597  -0.0954207246377
 C2 0.25403 0.1826 0.84011  -0.0954207246377
 C2 0.754015 0.182597 0.84008  -0.0954207246377
 C2 0.232314 0.135143 0.9918  -0.0954207246377
 C2 0.732319 0.135159 0.99181  -0.0954207246377
 C1 0.073049 0.563301 0.14098  -0.0564098913043
 C1 0.572962 0.563348 0.1409  -0.0564098913043
 C1 0.038538 0.475011 0.11704  -0.0564098913043
 C1 0.538454 0.475066 0.11699  -0.0564098913043
 C2 0.099954 0.581371 0.22767  -0.0954207246377
 C2 0.599824 0.581412 0.22766  -0.0954207246377
 C1 0.034184 0.406015 0.18435  -0.0564098913043
 C1 0.534094 0.406058 0.18428  -0.0564098913043
 C3 0.077905 0.640127 0.07748  0.767832608696
 C3 0.577873 0.640167 0.07746  0.767832608696
 C2 0.088844 0.51588 0.29403  -0.0954207246377
 C2 0.58871 0.515905 0.29400  -0.0954207246377
 C1 0.057531 0.429224 0.27368  -0.0564098913043
 C1 0.55745 0.429242 0.2736  -0.0564098913043
 C4 0.048863 0.36245 0.34867  0.779682608696
 C4 0.548873 0.362405 0.34855  0.779682608696
 C2 0.011876 0.451434 0.02910  -0.0954207246377
 C2 0.51179 0.451507 0.02905  -0.0954207246377
 C2 0.978605 0.297112 0.07410  -0.0954207246377
 C2 0.478492 0.297182 0.07402  -0.0954207246377
 C2 0.004081 0.317347 0.16000  -0.0954207246377
 C2 0.50398 0.317397 0.15992  -0.0954207246377
 C2 0.982388 0.364765 0.00826  -0.0954207246377
 C2 0.482287 0.364845 0.00819  -0.0954207246377
 C1 0.177006 0.436634 0.64099  -0.0564098913043
 C1 0.677017 0.436628 0.64093  -0.0564098913043
 C1 0.211519 0.524919 0.61703  -0.0564098913043
 C1 0.711563 0.524897 0.61696  -0.0564098913043
 C2 0.150118 0.418574 0.72767  -0.0954207246377
 C2 0.650184 0.418564 0.72763  -0.0954207246377
 C1 0.215876 0.593924 0.68432  -0.0564098913043
 C1 0.715864 0.593925 0.68423  -0.0564098913043
 C3 0.172126 0.359804 0.57749  0.767832608696
 C3 0.672139 0.359791 0.57745  0.767832608696
 C2 0.161234 0.484075 0.7940  -0.0954207246377
 C2 0.661259 0.484089 0.79396  -0.0954207246377
 C1 0.19252 0.570733 0.77365  -0.0564098913043
 C1 0.692544 0.57074 0.77356  -0.0564098913043
 C4 0.20113 0.637543 0.84861  0.779682608696
 C4 0.701078 0.637599 0.84848  0.779682608696
 C2 0.238194 0.548483 0.52909  -0.0954207246377
 C2 0.738193 0.54846 0.5290  -0.0954207246377
 C2 0.271469 0.70281 0.57407  -0.0954207246377
 C2 0.771497 0.702788 0.57397  -0.0954207246377
 C2 0.245981 0.682589 0.65997  -0.0954207246377
 C2 0.746027 0.682574 0.65988  -0.0954207246377
 C2 0.267691 0.635148 0.50824  -0.0954207246377
 C2 0.767724 0.635115 0.50815  -0.0954207246377
 O1 0.349203 0.194548 0.41876  -0.762557391304
 O1 0.8492 0.194532 0.41874  -0.762557391304
 O1 0.492032 0.15299 0.47775  -0.762557391304
 O1 0.992016 0.152936 0.47773  -0.762557391304
 O2 0.403266 0.788712 0.15703  -0.748082391304
 O2 0.903312 0.788745 0.15673  -0.748082391304
 O2 0.004521 0.886229 0.08655  -0.748082391304
 O2 0.504395 0.886088 0.08657  -0.748082391304
 O1 0.400787 0.805412 0.91876  -0.762557391304
 O1 0.900795 0.80542 0.91877  -0.762557391304
 O1 0.257969 0.846989 0.97776  -0.762557391304
 O1 0.757955 0.84698 0.97774  -0.762557391304
 O2 0.346743 0.211245 0.6569  -0.748082391304
 O2 0.846715 0.211234 0.65694  -0.748082391304
 O2 0.245581 0.113813 0.5866  -0.748082391304
 O2 0.745568 0.113823 0.58656  -0.748082391304
 O1 0.150812 0.694518 0.08126  -0.762557391304
 O1 0.650812 0.694518 0.08124  -0.762557391304
 O1 0.007992 0.652917 0.02228  -0.762557391304
 O1 0.507972 0.652976 0.02226  -0.762557391304
 O2 0.09669 0.28877 0.3433  -0.748082391304
 O2 0.596718 0.288743 0.34306  -0.748082391304
 O2 0.49558 0.386155 0.41344  -0.748082391304
 O2 0.995482 0.386259 0.41348  -0.748082391304
 O1 0.099205 0.305429 0.58127  -0.762557391304
 O1 0.599222 0.305415 0.58126  -0.762557391304
 O1 0.242035 0.347004 0.522  -0.762557391304
 O1 0.742039 0.346982 0.52225  -0.762557391304
 O2 0.153291 0.711211 0.84316  -0.748082391304
 O2 0.653228 0.711255 0.84296  -0.748082391304
 O2 0.254458 0.613779 0.91348  -0.748082391304
 O2 0.754383 0.613865 0.91337  -0.748082391304
