#======================================================================

# CRYSTAL DATA

#----------------------------------------------------------------------

data_VESTA_phase_1


_pd_phase_name                         MOF
_cell_length_a                         19.14500
_cell_length_b                         19.19900
_cell_length_c                         17.42000
_cell_angle_alpha                      95.56700
_cell_angle_beta                       105.60700
_cell_angle_gamma                      90.23400
_symmetry_space_group_name_H-M         "P 1"
_symmetry_Int_Tables_number            1

loop_
_symmetry_equiv_pos_as_xyz
   "x, y, z"

loop_
   _atom_site_label
   _atom_site_fract_x
   _atom_site_fract_y
   _atom_site_fract_z
 _atom_site_charge
 Zn1 0.390412 0.385594 0.16958  0.8550852
 Zn1 0.390298 0.887452 0.1722  0.8550852
 Zn1 0.888777 0.384515 0.16725  0.8550852
 Zn1 0.890083 0.885427 0.16788  0.8550852
 Zn2 0.48688 0.275189 0.34049  0.8061552
 Zn2 0.488151 0.775127 0.34060  0.8061552
 Zn2 0.984541 0.275066 0.34013  0.8061552
 Zn2 0.986513 0.77549 0.3397  0.8061552
 Zn1 0.304417 0.366861 0.82733  0.8550852
 Zn1 0.304576 0.866972 0.82938  0.8550852
 Zn1 0.804208 0.366014 0.82616  0.8550852
 Zn1 0.804276 0.864141 0.82614  0.8550852
 Zn2 0.314405 0.475685 0.65410  0.8061552
 Zn2 0.316657 0.977408 0.65707  0.8061552
 Zn2 0.816905 0.476209 0.65403  0.8061552
 Zn2 0.81842 0.975392 0.65637  0.8061552
 Zn1 0.110187 0.116163 0.82725  0.8550852
 Zn1 0.109782 0.616357 0.82688  0.8550852
 Zn1 0.610965 0.114276 0.82570  0.8550852
 Zn1 0.608769 0.614057 0.8239  0.8550852
 Zn2 0.012759 0.227224 0.65672  0.8061552
 Zn2 0.014317 0.727233 0.65640  0.8061552
 Zn2 0.512332 0.227583 0.65670  0.8061552
 Zn2 0.510934 0.72736 0.65656  0.8061552
 Zn1 0.194719 0.135906 0.16982  0.8550852
 Zn1 0.196093 0.635769 0.16947  0.8550852
 Zn1 0.694461 0.133705 0.16716  0.8550852
 Zn1 0.695325 0.634516 0.16679  0.8550852
 Zn2 0.183964 0.027318 0.34314  0.8061552
 Zn2 0.182791 0.525387 0.34000  0.8061552
 Zn2 0.686034 0.02586 0.34200  0.8061552
 Zn2 0.68497 0.525442 0.34004  0.8061552
 H1 0.259179 0.318236 0.05972  0.360350825
 H1 0.253415 0.82366 0.06459  0.360350825
 H1 0.758508 0.316777 0.05718  0.360350825
 H1 0.759313 0.817218 0.05743  0.360350825
 H1 0.218396 0.236031 0.050  0.360350825
 H1 0.195917 0.754087 0.06910  0.360350825
 H1 0.718864 0.233854 0.04683  0.360350825
 H1 0.719905 0.734228 0.04721  0.360350825
 H1 0.067364 0.031819 0.17786  0.360350825
 H1 0.063681 0.533685 0.18048  0.360350825
 H1 0.568752 0.029767 0.17695  0.360350825
 H1 0.569296 0.527445 0.17474  0.360350825
 H1 0.497323 0.473185 0.12160  0.360350825
 H1 0.496193 0.976098 0.12391  0.360350825
 H1 0.993456 0.478462 0.12410  0.360350825
 H1 0.995602 0.978068 0.12348  0.360350825
 H2 0.34693 0.171887 0.30520  0.0882302
 H2 0.350428 0.669354 0.30239  0.0882302
 H2 0.845108 0.171252 0.30365  0.0882302
 H2 0.846958 0.671296 0.30348  0.0882302
 H2 0.116083 0.391205 0.40062  0.0882302
 H2 0.116637 0.892893 0.40145  0.0882302
 H2 0.617371 0.393124 0.40225  0.0882302
 H2 0.61881 0.892534 0.40226  0.0882302
 H1 0.226847 0.435715 0.93800  0.360350825
 H1 0.218423 0.931718 0.93533  0.360350825
 H1 0.717481 0.430359 0.93173  0.360350825
 H1 0.71783 0.929485 0.93246  0.360350825
 H1 0.185704 0.514817 0.94389  0.360350825
 H1 0.153961 0.997144 0.92566  0.360350825
 H1 0.652534 0.495208 0.92177  0.360350825
 H1 0.652761 0.994347 0.92213  0.360350825
 H1 0.488528 0.234635 0.82705  0.360350825
 H1 0.48595 0.731917 0.8270  0.360350825
 H1 0.988465 0.233888 0.82679  0.360350825
 H1 0.989887 0.73253 0.82878  0.360350825
 H1 0.44011 0.287869 0.87981  0.360350825
 H1 0.438871 0.78582 0.88068  0.360350825
 H1 0.939961 0.287216 0.87948  0.360350825
 H1 0.939781 0.784784 0.88016  0.360350825
 H2 0.200073 0.081814 0.69545  0.0882302
 H2 0.195207 0.578984 0.6911  0.0882302
 H2 0.701636 0.080228 0.69393  0.0882302
 H2 0.699388 0.580361 0.69215  0.0882302
 H2 0.408703 0.354464 0.58975  0.0882302
 H2 0.409222 0.855462 0.59202  0.0882302
 H2 0.909673 0.354234 0.5896  0.0882302
 H2 0.912761 0.854819 0.59210  0.0882302
 H1 0.248616 0.181452 0.93425  0.360350825
 H1 0.246863 0.679792 0.93468  0.360350825
 H1 0.749831 0.179525 0.93162  0.360350825
 H1 0.748273 0.678604 0.93069  0.360350825
 H1 0.308738 0.246842 0.92448  0.360350825
 H1 0.305247 0.748707 0.92944  0.360350825
 H1 0.810101 0.244535 0.92115  0.360350825
 H1 0.808849 0.743366 0.9201  0.360350825
 H1 0.430414 0.472822 0.82016  0.360350825
 H1 0.432338 0.973429 0.82065  0.360350825
 H1 0.932907 0.470989 0.81654  0.360350825
 H1 0.93246 0.973847 0.82159  0.360350825
 H1 0.003116 0.030585 0.87729  0.360350825
 H1 0.002206 0.527489 0.87306  0.360350825
 H1 0.503998 0.029232 0.87597  0.360350825
 H1 0.501777 0.528991 0.87528  0.360350825
 H2 0.14904 0.332755 0.69598  0.0882302
 H2 0.152589 0.831513 0.6938  0.0882302
 H2 0.648459 0.332184 0.69537  0.0882302
 H2 0.648112 0.8315 0.69417  0.0882302
 H2 0.384605 0.108718 0.59400  0.0882302
 H2 0.382316 0.608198 0.59322  0.0882302
 H2 0.886529 0.106547 0.59282  0.0882302
 H2 0.885243 0.608503 0.59187  0.0882302
 H1 0.271355 0.068404 0.06038  0.360350825
 H1 0.274011 0.566912 0.05897  0.360350825
 H1 0.771212 0.066811 0.05758  0.360350825
 H1 0.771373 0.566988 0.05673  0.360350825
 H1 0.305691 0.985876 0.05046  0.360350825
 H1 0.314191 0.487242 0.05259  0.360350825
 H1 0.805395 0.984069 0.0472  0.360350825
 H1 0.805353 0.484216 0.04633  0.360350825
 H1 0.011027 0.26903 0.16929  0.360350825
 H1 0.011237 0.768725 0.1667  0.360350825
 H1 0.515009 0.271595 0.17108  0.360350825
 H1 0.517028 0.773299 0.17232  0.360350825
 H1 0.060356 0.216748 0.11866  0.360350825
 H1 0.061693 0.71656 0.11602  0.360350825
 H1 0.562078 0.218272 0.11879  0.360350825
 H1 0.563537 0.719945 0.11941  0.360350825
 H2 0.302236 0.42151 0.30378  0.0882302
 H2 0.305987 0.924323 0.30812  0.0882302
 H2 0.804582 0.421191 0.3028  0.0882302
 H2 0.8065 0.921999 0.30488  0.0882302
 H2 0.086157 0.146648 0.40559  0.0882302
 H2 0.087257 0.646657 0.4036  0.0882302
 H2 0.58802 0.145638 0.4048  0.0882302
 H2 0.588682 0.645195 0.40429  0.0882302
 C1 0.289572 0.261491 0.15570  0.6438252
 C1 0.287277 0.76568 0.16061  0.6438252
 C1 0.788901 0.259954 0.15320  0.6438252
 C1 0.790186 0.760394 0.15346  0.6438252
 C2 0.337178 0.208326 0.25989  0.29123895
 C2 0.339239 0.707551 0.2590  0.29123895
 C2 0.835687 0.207452 0.25809  0.29123895
 C2 0.83732 0.707658 0.2580  0.29123895
 C1 0.035949 0.454073 0.23766  0.6438252
 C1 0.037984 0.954639 0.23729  0.6438252
 C1 0.539307 0.452342 0.23630  0.6438252
 C1 0.539514 0.95367 0.23789  0.6438252
 C2 0.080692 0.404339 0.34442  0.29123895
 C2 0.081698 0.905679 0.34485  0.29123895
 C2 0.582529 0.405217 0.34529  0.29123895
 C2 0.583531 0.905241 0.34580  0.29123895
 C3 0.473967 0.218619 0.48480  0.5189402
 C3 0.473835 0.718484 0.48461  0.5189402
 C3 0.972326 0.218365 0.48464  0.5189402
 C3 0.974574 0.718999 0.48436  0.5189402
 C1 0.208846 0.489969 0.84067  0.6438252
 C1 0.204253 0.986467 0.83770  0.6438252
 C1 0.703182 0.484845 0.83411  0.6438252
 C1 0.704121 0.984098 0.835  0.6438252
 C2 0.209714 0.044125 0.73939  0.29123895
 C2 0.207068 0.542786 0.73671  0.29123895
 C2 0.710759 0.04231 0.73759  0.29123895
 C2 0.708987 0.542645 0.73605  0.29123895
 C1 0.423592 0.304941 0.76326  0.6438252
 C1 0.422981 0.804362 0.76456  0.6438252
 C1 0.924164 0.304753 0.76310  0.6438252
 C1 0.925534 0.80338 0.76437  0.6438252
 C2 0.40572 0.345547 0.6492  0.29123895
 C2 0.405984 0.846152 0.65134  0.29123895
 C2 0.906601 0.345349 0.64914  0.29123895
 C2 0.90901 0.84526 0.65117  0.29123895
 C3 0.232424 0.035518 0.51437  0.5189402
 C3 0.231161 0.533678 0.51126  0.5189402
 C3 0.734589 0.033613 0.51309  0.5189402
 C3 0.733201 0.533408 0.51132  0.5189402
 C1 0.21483 0.236675 0.8371  0.6438252
 C1 0.213992 0.736904 0.83777  0.6438252
 C1 0.715433 0.234917 0.83496  0.6438252
 C1 0.714231 0.73401 0.83387  0.6438252
 C2 0.160854 0.294868 0.73968  0.29123895
 C2 0.163181 0.793892 0.73789  0.29123895
 C2 0.660702 0.293898 0.73859  0.29123895
 C2 0.660065 0.793181 0.73736  0.29123895
 C1 0.461178 0.050945 0.76131  0.6438252
 C1 0.458806 0.550417 0.76052  0.6438252
 C1 0.961378 0.05113 0.76197  0.6438252
 C1 0.96181 0.549165 0.75817  0.6438252
 C2 0.418822 0.097245 0.65155  0.29123895
 C2 0.41651 0.59674 0.65079  0.29123895
 C2 0.920073 0.095918 0.65104  0.29123895
 C2 0.919434 0.596495 0.64920  0.29123895
 C3 0.025731 0.282356 0.51202  0.5189402
 C3 0.026957 0.78375 0.51170  0.5189402
 C3 0.525925 0.283661 0.51249  0.5189402
 C3 0.525287 0.783838 0.51262  0.5189402
 C1 0.288605 0.012342 0.15703  0.6438252
 C1 0.290652 0.511808 0.15561  0.6438252
 C1 0.788414 0.010423 0.15399  0.6438252
 C1 0.788042 0.510315 0.152  0.6438252
 C2 0.291048 0.458094 0.25860  0.29123895
 C2 0.293271 0.960346 0.26239  0.29123895
 C2 0.792145 0.457564 0.25749  0.29123895
 C2 0.793559 0.958124 0.25926  0.29123895
 C1 0.076215 0.199623 0.23476  0.6438252
 C1 0.075642 0.698376 0.23176  0.6438252
 C1 0.578397 0.199823 0.23467  0.6438252
 C1 0.579836 0.700781 0.23498  0.6438252
 C2 0.091044 0.156907 0.34715  0.29123895
 C2 0.09143 0.656283 0.34474  0.29123895
 C2 0.592845 0.156123 0.34643  0.29123895
 C2 0.593669 0.6561 0.34610  0.29123895
 C3 0.265983 0.466824 0.48284  0.5189402
 C3 0.266735 0.968353 0.48586  0.5189402
 C3 0.768332 0.466782 0.48279  0.5189402
 C3 0.76945 0.966757 0.48471  0.5189402
 C4 0.360116 0.372289 0.  0.9582802
 C4 0.357331 0.87353 0.  0.9582802
 C4 0.858016 0.371707 0.99771  0.9582802
 C4 0.858089 0.870962 0.99795  0.9582802
 C4 0.141872 0.12244 0.  0.9582802
 C4 0.141708 0.63068 0.99633  0.9582802
 C4 0.641955 0.120128 0.99765  0.9582802
 C4 0.64192 0.62114 0.99725  0.9582802
 N1 0.352863 0.295287 0.19424  -0.33587605
 N1 0.352357 0.797319 0.19636  -0.33587605
 N1 0.851732 0.294228 0.19239  -0.33587605
 N1 0.852969 0.794785 0.19264  -0.33587605
 N1 0.383045 0.260972 0.26208  -0.33587605
 N1 0.385386 0.759605 0.26044  -0.33587605
 N1 0.881321 0.260412 0.26076  -0.33587605
 N1 0.882813 0.760763 0.26080  -0.33587605
 N2 0.277993 0.206406 0.19551  -0.5489098
 N2 0.277399 0.708675 0.19829  -0.5489098
 N2 0.777175 0.204905 0.19294  -0.5489098
 N2 0.778656 0.705165 0.19307  -0.5489098
 N3 0.241777 0.279455 0.08793  -0.7709498
 N3 0.236941 0.788937 0.09828  -0.7709498
 N3 0.74152 0.277479 0.08488  -0.7709498
 N3 0.742599 0.777832 0.08522  -0.7709498
 N1 0.492199 0.400705 0.23818  -0.33587605
 N1 0.492455 0.901884 0.23953  -0.33587605
 N1 0.989447 0.401607 0.23837  -0.33587605
 N1 0.991349 0.902171 0.23782  -0.33587605
 N1 0.018889 0.369595 0.30771  -0.33587605
 N1 0.020164 0.870658 0.3077  -0.33587605
 N1 0.520726 0.370364 0.30891  -0.33587605
 N1 0.521503 0.87072 0.30960  -0.33587605
 N2 0.094117 0.457523 0.30343  -0.5489098
 N2 0.095552 0.958647 0.30378  -0.5489098
 N2 0.596799 0.456966 0.30284  -0.5489098
 N2 0.597501 0.957549 0.30392  -0.5489098
 N3 0.022996 0.499045 0.17961  -0.7709498
 N3 0.025667 0.999019 0.17862  -0.7709498
 N3 0.52742 0.495268 0.17628  -0.7709498
 N3 0.527087 0.997333 0.17859  -0.7709498
 N1 0.254014 0.456223 0.80334  -0.33587605
 N1 0.25357 0.955607 0.80419  -0.33587605
 N1 0.753013 0.45438 0.80111  -0.33587605
 N1 0.753677 0.953226 0.80193  -0.33587605
 N1 0.251786 0.490377 0.73534  -0.33587605
 N1 0.256055 0.993018 0.73987  -0.33587605
 N1 0.755778 0.491898 0.73694  -0.33587605
 N1 0.756943 0.99104 0.73817  -0.33587605
 N2 0.176154 0.042718 0.79880  -0.5489098
 N2 0.178651 0.544834 0.80046  -0.5489098
 N2 0.676607 0.040697 0.79649  -0.5489098
 N2 0.674889 0.540896 0.79500  -0.5489098
 N3 0.192663 0.47156 0.90745  -0.7709498
 N3 0.182762 0.962768 0.89881  -0.7709498
 N3 0.681427 0.460878 0.89495  -0.7709498
 N3 0.681934 0.960089 0.89560  -0.7709498
 N1 0.375133 0.356073 0.76117  -0.33587605
 N1 0.37556 0.856336 0.7633  -0.33587605
 N1 0.875923 0.356119 0.76101  -0.33587605
 N1 0.877051 0.854578 0.76228  -0.33587605
 N1 0.363737 0.381698 0.6867  -0.33587605
 N1 0.364688 0.882699 0.68936  -0.33587605
 N1 0.864704 0.381684 0.68655  -0.33587605
 N1 0.866588 0.880992 0.6883  -0.33587605
 N2 0.444119 0.29696 0.69398  -0.5489098
 N2 0.443421 0.796583 0.69521  -0.5489098
 N2 0.944746 0.296671 0.69386  -0.5489098
 N2 0.946853 0.796182 0.69550  -0.5489098
 N3 0.445323 0.265508 0.82582  -0.7709498
 N3 0.443749 0.764002 0.82641  -0.7709498
 N3 0.945596 0.265206 0.82555  -0.7709498
 N3 0.946512 0.763401 0.82647  -0.7709498
 N1 0.14881 0.20577 0.80393  -0.33587605
 N1 0.148861 0.705378 0.80189  -0.33587605
 N1 0.649235 0.204203 0.80226  -0.33587605
 N1 0.647857 0.703677 0.80101  -0.33587605
 N1 0.114552 0.243558 0.74014  -0.33587605
 N1 0.116671 0.742288 0.73679  -0.33587605
 N1 0.614441 0.242597 0.73919  -0.33587605
 N1 0.613472 0.742135 0.73788  -0.33587605
 N2 0.223851 0.293315 0.79867  -0.5489098
 N2 0.224502 0.793147 0.79930  -0.5489098
 N2 0.724138 0.291832 0.79674  -0.5489098
 N2 0.723373 0.790809 0.79564  -0.5489098
 N3 0.266442 0.212579 0.8976  -0.7709498
 N3 0.263773 0.714156 0.90081  -0.7709498
 N3 0.767479 0.210469 0.89474  -0.7709498
 N3 0.766035 0.709476 0.89375  -0.7709498
 N1 0.007452 0.104176 0.76121  -0.33587605
 N1 0.008453 0.601539 0.75754  -0.33587605
 N1 0.507724 0.103524 0.76030  -0.33587605
 N1 0.50531 0.603092 0.75960  -0.33587605
 N1 0.479774 0.133012 0.68880  -0.33587605
 N1 0.47739 0.632608 0.68810  -0.33587605
 N1 0.980281 0.132634 0.68889  -0.33587605
 N1 0.980572 0.631937 0.68680  -0.33587605
 N2 0.404562 0.045484 0.69388  -0.5489098
 N2 0.402206 0.544854 0.69302  -0.5489098
 N2 0.905684 0.04445 0.69368  -0.5489098
 N2 0.905067 0.544283 0.69093  -0.5489098
 N3 0.472776 0.008156 0.82116  -0.7709498
 N3 0.470581 0.507792 0.82054  -0.7709498
 N3 0.972636 0.008979 0.82240  -0.7709498
 N3 0.973557 0.505729 0.81766  -0.7709498
 N1 0.2449 0.046381 0.19589  -0.33587605
 N1 0.245264 0.545488 0.19270  -0.33587605
 N1 0.745244 0.044596 0.19348  -0.33587605
 N1 0.74493 0.54466 0.19222  -0.33587605
 N1 0.248797 0.012911 0.26451  -0.33587605
 N1 0.246519 0.510699 0.26002  -0.33587605
 N1 0.749491 0.010948 0.26208  -0.33587605
 N1 0.748482 0.510673 0.26041  -0.33587605
 N2 0.32022 0.456423 0.19540  -0.5489098
 N2 0.319996 0.957812 0.19735  -0.5489098
 N2 0.818587 0.455065 0.19227  -0.5489098
 N2 0.819656 0.955553 0.1937  -0.5489098
 N3 0.302301 0.02962 0.08836  -0.7709498
 N3 0.307483 0.530497 0.08930  -0.7709498
 N3 0.80193 0.027816 0.08530  -0.7709498
 N3 0.802047 0.527925 0.08443  -0.7709498
 N1 0.125786 0.149599 0.23791  -0.33587605
 N1 0.123948 0.64696 0.23398  -0.33587605
 N1 0.6269 0.1489 0.23677  -0.33587605
 N1 0.627816 0.649488 0.23649  -0.33587605
 N1 0.135013 0.122247 0.31104  -0.33587605
 N1 0.133952 0.620348 0.30778  -0.33587605
 N1 0.635937 0.120911 0.3095  -0.33587605
 N1 0.6364 0.620833 0.30876  -0.33587605
 N2 0.053182 0.205864 0.30251  -0.5489098
 N2 0.05399 0.705665 0.30044  -0.5489098
 N2 0.555737 0.206026 0.30267  -0.5489098
 N2 0.557201 0.70664 0.30300  -0.5489098
 N3 0.055672 0.239736 0.17241  -0.7709498
 N3 0.055083 0.738375 0.16960  -0.7709498
 N3 0.558535 0.240899 0.17310  -0.7709498
 N3 0.560393 0.74246 0.17393  -0.7709498
 O1 0.414044 0.375514 0.06471  -0.5956998
 O1 0.410981 0.877779 0.0664  -0.5956998
 O1 0.911435 0.374239 0.06272  -0.5956998
 O1 0.911773 0.874224 0.06275  -0.5956998
 O1 0.449871 0.202465 0.41009  -0.5956998
 O1 0.450461 0.702131 0.40988  -0.5956998
 O1 0.947005 0.202841 0.40997  -0.5956998
 O1 0.949764 0.702944 0.40971  -0.5956998
 O1 0.459736 0.1863 0.53921  -0.5956998
 O1 0.45925 0.686141 0.53885  -0.5956998
 O1 0.958333 0.186229 0.53930  -0.5956998
 O1 0.960752 0.68671 0.53900  -0.5956998
 O1 0.374429 0.352735 0.93159  -0.5956998
 O1 0.37244 0.852659 0.93395  -0.5956998
 O1 0.872654 0.349996 0.93009  -0.5956998
 O1 0.872093 0.847663 0.93045  -0.5956998
 O1 0.2468 0.052096 0.58915  -0.5956998
 O1 0.244823 0.549909 0.58605  -0.5956998
 O1 0.748357 0.049931 0.58783  -0.5956998
 O1 0.74704 0.549735 0.58614  -0.5956998
 O1 0.192741 0.069093 0.46050  -0.5956998
 O1 0.191769 0.567362 0.45734  -0.5956998
 O1 0.695006 0.067264 0.45917  -0.5956998
 O1 0.693367 0.566876 0.45752  -0.5956998
 O1 0.093992 0.100783 0.93240  -0.5956998
 O1 0.087324 0.625802 0.93195  -0.5956998
 O1 0.594467 0.097454 0.93014  -0.5956998
 O1 0.593964 0.599116 0.92984  -0.5956998
 O1 0.051727 0.297415 0.58674  -0.5956998
 O1 0.05192 0.799636 0.58636  -0.5956998
 O1 0.550358 0.299591 0.58725  -0.5956998
 O1 0.548837 0.80006 0.58740  -0.5956998
 O1 0.039219 0.315029 0.45750  -0.5956998
 O1 0.040622 0.816136 0.45700  -0.5956998
 O1 0.539787 0.316256 0.45810  -0.5956998
 O1 0.539672 0.816365 0.45845  -0.5956998
 O1 0.120244 0.125272 0.06511  -0.5956998
 O1 0.127374 0.650113 0.06466  -0.5956998
 O1 0.620332 0.122459 0.06269  -0.5956998
 O1 0.620505 0.624226 0.06250  -0.5956998
 O1 0.251937 0.450337 0.40809  -0.5956998
 O1 0.252344 0.951726 0.41113  -0.5956998
 O1 0.75432 0.450437 0.40804  -0.5956998
 O1 0.755356 0.950201 0.40998  -0.5956998
 O1 0.305752 0.433401 0.53678  -0.5956998
 O1 0.306538 0.934861 0.53973  -0.5956998
 O1 0.808261 0.433448 0.53670  -0.5956998
 O1 0.809314 0.933464 0.53875  -0.5956998
 O2 0.29552 0.386955 0.0032  -0.7539798
 O2 0.292307 0.888371 0.00357  -0.7539798
 O2 0.793615 0.388782 0.99965  -0.7539798
 O2 0.79391 0.888823 0.  -0.7539798
 O2 0.207573 0.139213 0.00246  -0.7539798
 O2 0.206624 0.617503 0.99287  -0.7539798
 O2 0.707221 0.138276 0.99980  -0.7539798
 O2 0.707543 0.638011 0.99944  -0.7539798
