#======================================================================

# CRYSTAL DATA

#----------------------------------------------------------------------

data_VESTA_phase_1


_pd_phase_name                         MOF
_cell_length_a                         13.21800
_cell_length_b                         13.20000
_cell_length_c                         18.51700
_cell_angle_alpha                      83.28400
_cell_angle_beta                       83.11000
_cell_angle_gamma                      67.65800
_symmetry_space_group_name_H-M         "P 1"
_symmetry_Int_Tables_number            1

loop_
_symmetry_equiv_pos_as_xyz
   "x, y, z"

loop_
   _atom_site_label
   _atom_site_fract_x
   _atom_site_fract_y
   _atom_site_fract_z
 _atom_site_charge
 Zn1 0.706638 0.956348 0.78148  0.858197318841
 Zn1 0.098509 0.716198 0.57764  0.858197318841
 Zn1 0.043556 0.293432 0.71867  0.858197318841
 Zn1 0.28059 0.901703 0.92234  0.858197318841
 Zn1 0.293382 0.043633 0.2185  0.858197318841
 Zn1 0.901508 0.283784 0.42237  0.858197318841
 Zn1 0.956471 0.706541 0.28133  0.858197318841
 Zn1 0.719453 0.098279 0.07767  0.858197318841
 Zn2 0.862022 0.137877 0.74986  0.990917318841
 Zn2 0.138002 0.862102 0.25015  0.990917318841
 H1 0.611767 0.380398 0.66730  0.100091604555
 H1 0.450268 0.543741 0.62609  0.100091604555
 H1 0.41012 0.18699 0.7019  0.100091604555
 H1 0.819021 0.191596 0.92575  0.100091604555
 H1 0.690202 0.939563 0.96188  0.100091604555
 H1 0.072067 0.945068 0.64796  0.100091604555
 H1 0.863984 0.7655 0.67263  0.100091604555
 H1 0.619539 0.388244 0.83257  0.100091604555
 H1 0.455445 0.549707 0.87354  0.100091604555
 H1 0.81153 0.591277 0.79852  0.100091604555
 H1 0.808204 0.182641 0.57379  0.100091604555
 H1 0.060414 0.311018 0.53853  0.100091604555
 H1 0.053008 0.928094 0.85119  0.100091604555
 H1 0.233019 0.135744 0.82782  0.100091604555
 H1 0.38825 0.619589 0.33271  0.100091604555
 H1 0.549748 0.456247 0.37392  0.100091604555
 H1 0.589901 0.812993 0.29803  0.100091604555
 H1 0.181007 0.808381 0.07425  0.100091604555
 H1 0.309851 0.060396 0.03813  0.100091604555
 H1 0.927956 0.054908 0.3520  0.100091604555
 H1 0.136029 0.234487 0.32737  0.100091604555
 H1 0.380482 0.611738 0.16742  0.100091604555
 H1 0.544585 0.450277 0.12646  0.100091604555
 H1 0.18851 0.408687 0.20147  0.100091604555
 H1 0.191807 0.817349 0.42622  0.100091604555
 H1 0.939626 0.688932 0.46147  0.100091604555
 H1 0.94705 0.071875 0.14882  0.100091604555
 H1 0.76701 0.864253 0.17218  0.100091604555
 C1 0.615384 0.176361 0.7133  0.686313985507
 C2 0.520008 0.27398 0.68704  -0.108089347826
 C3 0.532291 0.374393 0.66522  -0.0433060144928
 C3 0.442861 0.464712 0.64237  -0.0433060144928
 C2 0.340209 0.456672 0.64010  -0.108089347826
 C2 0.327822 0.355496 0.6610  -0.108089347826
 C3 0.418096 0.265583 0.68486  -0.0433060144928
 C1 0.247148 0.556428 0.61686  0.686313985507
 C1 0.223107 0.335882 0.6581  0.686313985507
 C4 0.79253 0.125437 0.9184  0.276053568841
 C4 0.726009 0.99847 0.93756  0.276053568841
 C4 0.003422 0.919086 0.66390  0.276053568841
 C4 0.898187 0.827501 0.67596  0.276053568841
 C1 0.823511 0.385104 0.78712  0.686313985507
 C2 0.725395 0.480595 0.81325  -0.108089347826
 C3 0.6251 0.468003 0.83477  -0.0433060144928
 C3 0.534332 0.557455 0.85748  -0.0433060144928
 C2 0.541693 0.660531 0.85991  -0.108089347826
 C2 0.642713 0.673269 0.83920  -0.108089347826
 C3 0.733105 0.582937 0.81551  -0.0433060144928
 C1 0.441376 0.753539 0.88301  0.686313985507
 C1 0.661818 0.778432 0.84194  0.686313985507
 C4 0.874324 0.20896 0.58130  0.276053568841
 C4 0.0 0.275372 0.56264  0.276053568841
 C4 0.079301 0.996617 0.83550  0.276053568841
 C4 0.171075 0.101686 0.82411  0.276053568841
 C1 0.384637 0.823626 0.28665  0.686313985507
 C2 0.48001 0.726007 0.31298  -0.108089347826
 C3 0.467726 0.625594 0.33479  -0.0433060144928
 C3 0.557157 0.535274 0.35764  -0.0433060144928
 C2 0.659809 0.543313 0.35991  -0.108089347826
 C2 0.672198 0.644488 0.33898  -0.108089347826
 C3 0.581924 0.734402 0.31515  -0.0433060144928
 C1 0.752871 0.443555 0.38315  0.686313985507
 C1 0.776914 0.664102 0.34187  0.686313985507
 C4 0.207503 0.874536 0.08156  0.276053568841
 C4 0.274036 0.0 0.0624  0.276053568841
 C4 0.996599 0.080891 0.33611  0.276053568841
 C4 0.101829 0.172483 0.32404  0.276053568841
 C1 0.176508 0.614875 0.21285  0.686313985507
 C2 0.274635 0.519378 0.18674  -0.108089347826
 C3 0.374928 0.531974 0.16522  -0.0433060144928
 C3 0.4657 0.442525 0.14251  -0.0433060144928
 C2 0.458345 0.339446 0.14008  -0.108089347826
 C2 0.35733 0.3267 0.16080  -0.108089347826
 C3 0.266933 0.417031 0.18448  -0.0433060144928
 C1 0.558665 0.24644 0.11698  0.686313985507
 C1 0.338222 0.221538 0.15806  0.686313985507
 C4 0.125697 0.791015 0.41871  0.276053568841
 C4 0.998733 0.72458 0.43737  0.276053568841
 C4 0.920746 0.003359 0.16451  0.276053568841
 C4 0.828957 0.898303 0.17590  0.276053568841
 N1 0.795576 0.089615 0.85385  -0.237575806159
 N1 0.752677 0.0 0.86625  -0.237575806159
 N2 0.750077 0.070356 0.97274  -0.511267681159
 N1 0.91614 0.973728 0.70688  -0.237575806159
 N1 0.848773 0.914793 0.71427  -0.237575806159
 N2 0.995993 0.826719 0.64290  -0.511267681159
 N1 0.910206 0.205028 0.64592  -0.237575806159
 N1 0.991418 0.247891 0.63381  -0.237575806159
 N2 0.929326 0.252 0.5272  -0.511267681159
 N1 0.02558 0.083813 0.79240  -0.237575806159
 N1 0.084606 0.151062 0.78543  -0.237575806159
 N2 0.171152 0.0 0.85702  -0.511267681159
 N1 0.204452 0.91036 0.14615  -0.237575806159
 N1 0.247357 0.991586 0.13376  -0.237575806159
 N2 0.249966 0.929611 0.02727  -0.511267681159
 N1 0.083881 0.02625 0.2931  -0.237575806159
 N1 0.151244 0.085188 0.28573  -0.237575806159
 N2 0.0 0.173262 0.35711  -0.511267681159
 N1 0.089831 0.794931 0.35409  -0.237575806159
 N1 0.0 0.75205 0.36619  -0.237575806159
 N2 0.070696 0.747972 0.47274  -0.511267681159
 N1 0.974455 0.916162 0.20762  -0.237575806159
 N1 0.91542 0.848923 0.2145  -0.237575806159
 N2 0.828893 0.995964 0.14299  -0.511267681159
 O1 0.709535 0.182393 0.70377  -0.613422681159
 O1 0.593415 0.093521 0.74323  -0.613422681159
 O1 0.149873 0.555601 0.6189  -0.613422681159
 O1 0.262616 0.646161 0.59442  -0.613422681159
 O2 0.19919 0.315549 0.60016  -0.606912681159
 O1 0.169247 0.333871 0.72182  -0.613422681159
 O1 0.817472 0.290868 0.79616  -0.613422681159
 O1 0.906763 0.406979 0.75799  -0.613422681159
 O1 0.441309 0.851268 0.88069  -0.613422681159
 O1 0.35202 0.7374 0.90562  -0.613422681159
 O2 0.679992 0.804221 0.89999  -0.606912681159
 O1 0.665993 0.830696 0.77800  -0.613422681159
 O1 0.290486 0.817591 0.29624  -0.613422681159
 O1 0.406608 0.906462 0.25678  -0.613422681159
 O1 0.850146 0.444382 0.38104  -0.613422681159
 O1 0.737401 0.353823 0.40559  -0.613422681159
 O2 0.800832 0.684432 0.39985  -0.606912681159
 O1 0.830773 0.666109 0.27819  -0.613422681159
 O1 0.182568 0.709103 0.20385  -0.613422681159
 O1 0.093214 0.593019 0.24191  -0.613422681159
 O1 0.558745 0.148704 0.11933  -0.613422681159
 O1 0.648017 0.262585 0.09437  -0.613422681159
 O2 0.320042 0.195751 0.10002  -0.606912681159
 O1 0.334033 0.169282 0.22201  -0.613422681159
