#======================================================================

# CRYSTAL DATA

#----------------------------------------------------------------------

data_VESTA_phase_1


_pd_phase_name                         MOF
_cell_length_a                         15.75000
_cell_length_b                         15.74800
_cell_length_c                         16.41400
_cell_angle_alpha                      89.99900
_cell_angle_beta                       89.99900
_cell_angle_gamma                      119.96600
_symmetry_space_group_name_H-M         "P 1"
_symmetry_Int_Tables_number            1

loop_
_symmetry_equiv_pos_as_xyz
   "x, y, z"

loop_
   _atom_site_label
   _atom_site_fract_x
   _atom_site_fract_y
   _atom_site_fract_z
 _atom_site_charge
 Zn1 0.333314 0.666699 0.83031  1.04670702128
 Zn1 0.666612 0.333249 0.16969  1.04670702128
 Ag1 0.846563 0.264979 0.2676  0.542997021277
 Ag1 0.418391 0.153378 0.26762  0.542997021277
 Ag1 0.734933 0.581582 0.26759  0.542997021277
 Ag1 0.153343 0.735013 0.732  0.542997021277
 Ag1 0.581568 0.846589 0.73236  0.542997021277
 Ag1 0.265024 0.418423 0.7323  0.542997021277
 H1 0.017033 0.551581 0.78518  0.106261836091
 H1 0.156586 0.630815 0.0352  0.106261836091
 H1 0.952942 0.614306 0.85241  0.106261836091
 H1 0.052515 0.645293 0.14348  0.106261836091
 H1 0.849568 0.627936 0.95819  0.106261836091
 H1 0.22211 0.516712 0.60856  0.106261836091
 H1 0.940675 0.454449 0.70156  0.106261836091
 H1 0.142629 0.425046 0.48219  0.106261836091
 H1 0.861832 0.36717 0.57556  0.106261836091
 H1 0.534468 0.982921 0.78515  0.106261836091
 H1 0.474298 0.843439 0.0352  0.106261836091
 H1 0.66126 0.046984 0.85240  0.106261836091
 H1 0.592776 0.947485 0.14348  0.106261836091
 H1 0.778195 0.150322 0.95816  0.106261836091
 H1 0.294601 0.777851 0.60863  0.106261836091
 H1 0.51365 0.059243 0.70154  0.106261836091
 H1 0.282423 0.85735 0.48222  0.106261836091
 H1 0.505219 0.138101 0.57550  0.106261836091
 H1 0.448417 0.465411 0.78515  0.106261836091
 H1 0.369149 0.52576 0.03524  0.106261836091
 H1 0.3857 0.338627 0.85241  0.106261836091
 H1 0.354662 0.407203 0.14348  0.106261836091
 H1 0.372061 0.221617 0.95819  0.106261836091
 H1 0.48322 0.705424 0.60861  0.106261836091
 H1 0.545537 0.486184 0.70153  0.106261836091
 H1 0.574926 0.7176 0.48224  0.106261836091
 H1 0.632861 0.494616 0.57553  0.106261836091
 H1 0.982945 0.448428 0.2148  0.106261836091
 H1 0.843363 0.369146 0.96476  0.106261836091
 H1 0.047059 0.385767 0.14758  0.106261836091
 H1 0.947431 0.354651 0.85652  0.106261836091
 H1 0.150428 0.37212 0.04181  0.106261836091
 H1 0.777843 0.483248 0.39144  0.106261836091
 H1 0.059298 0.5456 0.29844  0.106261836091
 H1 0.857306 0.574904 0.51782  0.106261836091
 H1 0.138127 0.632879 0.42445  0.106261836091
 H1 0.46548 0.017043 0.21485  0.106261836091
 H1 0.525671 0.156507 0.96474  0.106261836091
 H1 0.338694 0.952972 0.147  0.106261836091
 H1 0.407183 0.052483 0.85652  0.106261836091
 H1 0.221753 0.849648 0.0418  0.106261836091
 H1 0.705348 0.222123 0.39139  0.106261836091
 H1 0.486256 0.940746 0.29848  0.106261836091
 H1 0.717537 0.142607 0.51778  0.106261836091
 H1 0.494696 0.861873 0.42450  0.106261836091
 H1 0.551563 0.534553 0.21486  0.106261836091
 H1 0.630799 0.474209 0.96477  0.106261836091
 H1 0.614309 0.661358 0.14762  0.106261836091
 H1 0.645248 0.592757 0.8565  0.106261836091
 H1 0.627926 0.778368 0.0418  0.106261836091
 H1 0.516728 0.294521 0.39138  0.106261836091
 H1 0.454418 0.513771 0.29848  0.106261836091
 H1 0.425028 0.282342 0.5177  0.106261836091
 H1 0.367109 0.505346 0.42449  0.106261836091
 C1 0.140837 0.543765 0.74024  0.420363687943
 C2 0.093722 0.575666 0.79698  -0.569812978723
 C1 0.128541 0.611322 0.87746  0.420363687943
 C3 0.061793 0.619465 0.93698  -0.0601554787234
 C4 0.088964 0.630068 0.01987  -0.0820150620567
 C4 0.974685 0.619246 0.91602  -0.0820150620567
 C4 0.031532 0.63836 0.07954  -0.0820150620567
 C4 0.916527 0.628026 0.97491  -0.0820150620567
 C3 0.944251 0.637746 0.05785  -0.0601554787234
 C5 0.887357 0.647945 0.11907  0.366012021277
 C3 0.088287 0.492103 0.66518  -0.0601554787234
 C4 0.143096 0.482511 0.60106  -0.0820150620567
 C4 0.986073 0.449495 0.6538  -0.0820150620567
 C4 0.098934 0.431982 0.53041  -0.0820150620567
 C4 0.940689 0.399294 0.58321  -0.0820150620567
 C3 0.996303 0.388978 0.52013  -0.0601554787234
 C5 0.949693 0.337512 0.44862  0.366012021277
 C1 0.402903 0.859149 0.74028  0.420363687943
 C2 0.481896 0.906244 0.79699  -0.569812978723
 C1 0.482762 0.871448 0.87749  0.420363687943
 C3 0.55765 0.93819 0.93698  -0.0601554787234
 C4 0.541126 0.911041 0.01987  -0.0820150620567
 C4 0.644464 0.025239 0.91601  -0.0820150620567
 C4 0.606817 0.968459 0.07953  -0.0820150620567
 C4 0.711371 0.08338 0.97489  -0.0820150620567
 C3 0.693402 0.055679 0.05783  -0.0601554787234
 C5 0.760444 0.112582 0.11905  0.366012021277
 C3 0.403779 0.911686 0.66519  -0.0601554787234
 C4 0.339403 0.856865 0.60110  -0.0820150620567
 C4 0.463323 0.013858 0.65383  -0.0820150620567
 C4 0.333036 0.901033 0.53043  -0.0820150620567
 C4 0.458505 0.059247 0.58318  -0.0820150620567
 C3 0.392613 0.003629 0.52012  -0.0601554787234
 C5 0.387737 0.050239 0.44860  0.366012021277
 C1 0.456174 0.59703 0.74025  0.420363687943
 C2 0.424327 0.518037 0.79699  -0.569812978723
 C1 0.388675 0.517209 0.87747  0.420363687943
 C3 0.380546 0.442322 0.9369  -0.0601554787234
 C4 0.369905 0.458881 0.01987  -0.0820150620567
 C4 0.38075 0.355432 0.91602  -0.0820150620567
 C4 0.361625 0.393163 0.07954  -0.0820150620567
 C4 0.371983 0.2885 0.97491  -0.0820150620567
 C3 0.362224 0.306495 0.05785  -0.0601554787234
 C5 0.352041 0.239418 0.11907  0.366012021277
 C3 0.507849 0.596149 0.66518  -0.0601554787234
 C4 0.517414 0.660566 0.60109  -0.0820150620567
 C4 0.550485 0.536544 0.65383  -0.0820150620567
 C4 0.567978 0.666945 0.53044  -0.0820150620567
 C4 0.600717 0.541368 0.58319  -0.0820150620567
 C3 0.610998 0.607305 0.52014  -0.0601554787234
 C5 0.662486 0.612176 0.44862  0.366012021277
 C1 0.859134 0.456232 0.25976  0.420363687943
 C2 0.906265 0.424364 0.20301  -0.569812978723
 C1 0.871437 0.388696 0.12254  0.420363687943
 C3 0.93819 0.380573 0.06301  -0.0601554787234
 C4 0.910991 0.369906 0.98013  -0.0820150620567
 C4 0.025301 0.380794 0.0839  -0.0820150620567
 C4 0.968436 0.361631 0.92046  -0.0820150620567
 C4 0.083471 0.372032 0.02509  -0.0820150620567
 C3 0.055708 0.36223 0.94215  -0.0601554787234
 C5 0.112622 0.352065 0.88093  0.366012021277
 C3 0.911687 0.507917 0.33483  -0.0601554787234
 C4 0.856854 0.517443 0.39895  -0.0820150620567
 C4 0.013894 0.550532 0.34616  -0.0820150620567
 C4 0.901009 0.567985 0.46960  -0.0820150620567
 C4 0.05927 0.600743 0.41680  -0.0820150620567
 C3 0.003638 0.611011 0.47988  -0.0601554787234
 C5 0.050235 0.662487 0.55140  0.366012021277
 C1 0.597034 0.140832 0.25974  0.420363687943
 C2 0.518058 0.093716 0.20300  -0.569812978723
 C1 0.517185 0.128504 0.12251  0.420363687943
 C3 0.442303 0.06177 0.06302  -0.0601554787234
 C4 0.45884 0.088907 0.98012  -0.0820150620567
 C4 0.355492 0.974712 0.08398  -0.0820150620567
 C4 0.39314 0.031506 0.92046  -0.0820150620567
 C4 0.288579 0.916586 0.02510  -0.0820150620567
 C3 0.30655 0.944283 0.94216  -0.0601554787234
 C5 0.23948 0.887412 0.88095  0.366012021277
 C3 0.596151 0.088303 0.33482  -0.0601554787234
 C4 0.660544 0.143108 0.39891  -0.0820150620567
 C4 0.536594 0.986125 0.34618  -0.0820150620567
 C4 0.666911 0.098932 0.4695  -0.0820150620567
 C4 0.541408 0.940729 0.41683  -0.0820150620567
 C3 0.607334 0.996332 0.47988  -0.0601554787234
 C5 0.612198 0.949708 0.55139  0.366012021277
 C1 0.543765 0.40291 0.25975  0.420363687943
 C2 0.575658 0.481928 0.20304  -0.569812978723
 C1 0.611317 0.482764 0.12255  0.420363687943
 C3 0.619465 0.557674 0.0630  -0.0601554787234
 C4 0.630033 0.541081 0.98015  -0.0820150620567
 C4 0.619223 0.644541 0.08400  -0.0820150620567
 C4 0.638328 0.606813 0.92048  -0.0820150620567
 C4 0.628014 0.71149 0.02512  -0.0820150620567
 C3 0.637709 0.693464 0.94218  -0.0601554787234
 C5 0.647911 0.760552 0.88095  0.366012021277
 C3 0.492085 0.403789 0.33481  -0.0601554787234
 C4 0.482525 0.339371 0.3989  -0.0820150620567
 C4 0.449474 0.463413 0.34618  -0.0820150620567
 C4 0.431978 0.333003 0.46956  -0.0820150620567
 C4 0.399261 0.458602 0.4168  -0.0820150620567
 C3 0.388955 0.392641 0.47987  -0.0601554787234
 C5 0.337472 0.387764 0.55138  0.366012021277
 N1 0.90903 0.292241 0.39025  -0.458152978723
 N1 0.843627 0.659956 0.17145  -0.458152978723
 N1 0.383081 0.090896 0.39022  -0.458152978723
 N1 0.816118 0.156329 0.17144  -0.458152978723
 N1 0.707808 0.616852 0.39025  -0.458152978723
 N1 0.340027 0.1837 0.17147  -0.458152978723
 N1 0.090878 0.707782 0.60976  -0.458152978723
 N1 0.156384 0.340125 0.82854  -0.458152978723
 N1 0.616822 0.909005 0.60975  -0.458152978723
 N1 0.183763 0.843704 0.82857  -0.458152978723
 N1 0.292211 0.383135 0.60978  -0.458152978723
 N1 0.659881 0.81624 0.8285  -0.458152978723
 O1 0.228122 0.557082 0.74986  -0.519072978723
 O1 0.214029 0.635179 0.90330  -0.519072978723
 O1 0.328955 0.771907 0.74991  -0.519072978723
 O1 0.421164 0.785975 0.9033  -0.519072978723
 O1 0.442855 0.671015 0.74989  -0.519072978723
 O1 0.364789 0.578858 0.90330  -0.519072978723
 O1 0.771856 0.442908 0.25014  -0.519072978723
 O1 0.785936 0.364821 0.09672  -0.519072978723
 O1 0.670975 0.228097 0.25010  -0.519072978723
 O1 0.57879 0.213978 0.09665  -0.519072978723
 O1 0.557072 0.328918 0.25010  -0.519072978723
 O1 0.635145 0.42109 0.09668  -0.519072978723
