#======================================================================

# CRYSTAL DATA

#----------------------------------------------------------------------

data_VESTA_phase_1


_pd_phase_name                         MOF
_cell_length_a                         19.22600
_cell_length_b                         22.02900
_cell_length_c                         18.97300
_cell_angle_alpha                      101.66100
_cell_angle_beta                       87.80300
_cell_angle_gamma                      90.67800
_symmetry_space_group_name_H-M         "P 1"
_symmetry_Int_Tables_number            1

loop_
_symmetry_equiv_pos_as_xyz
   "x, y, z"

loop_
   _atom_site_label
   _atom_site_fract_x
   _atom_site_fract_y
   _atom_site_fract_z
 _atom_site_charge
 Y1 0.393248 0.251795 0.00753  2.0726712
 Y1 0.394992 0.749234 0.99427  2.0726712
 Y1 0.895278 0.248457 0.99503  2.0726712
 Y1 0.892357 0.750045 0.00970  2.0726712
 Y1 0.142254 0.499563 0.50946  2.0726712
 Y1 0.145087 0.997176 0.49553  2.0726712
 Y1 0.644784 0.498855 0.49472  2.0726712
 Y1 0.642467 0.0 0.50839  2.0726712
 Y1 0.107801 0.249655 0.99396  2.0726712
 Y1 0.105049 0.752125 0.  2.0726712
 Y1 0.605746 0.252926 0.  2.0726712
 Y1 0.607724 0.751575 0.99240  2.0726712
 Y1 0.357831 0.99952 0.49333  2.0726712
 Y1 0.354975 0.500836 0.5076  2.0726712
 Y1 0.855352 0.001425 0.50725  2.0726712
 Y1 0.857538 0.500607 0.49357  2.0726712
 H1 0.109574 0.195879 0.76238  0.0999062
 H1 0.121381 0.693218 0.77220  0.0999062
 H1 0.622748 0.192263 0.77072  0.0999062
 H1 0.609034 0.698793 0.75990  0.0999062
 H1 0.112825 0.134696 0.63601  0.0999062
 H1 0.111745 0.61984 0.65368  0.0999062
 H1 0.612245 0.119194 0.65217  0.0999062
 H1 0.612141 0.637669 0.63353  0.0999062
 H1 0.389797 0.138751 0.67044  0.0999062
 H1 0.38826 0.632084 0.63839  0.0999062
 H1 0.888956 0.133368 0.63844  0.0999062
 H1 0.88896 0.63566 0.67251  0.0999062
 H1 0.400341 0.21015 0.79068  0.0999062
 H1 0.385588 0.692967 0.76458  0.0999062
 H1 0.886133 0.194238 0.76469  0.0999062
 H1 0.898639 0.707158 0.79278  0.0999062
 H1 0.117051 0.047656 0.99539  0.0999062
 H1 0.105231 0.566188 0.99121  0.0999062
 H1 0.604486 0.067148 0.98994  0.0999062
 H1 0.618174 0.549561 0.99374  0.0999062
 H1 0.382448 0.049696 0.  0.0999062
 H1 0.395534 0.564973 0.99571  0.0999062
 H1 0.894518 0.063773 0.99661  0.0999062
 H1 0.88335 0.548035 0.  0.0999062
 H1 0.351932 0.04481 0.70936  0.0999062
 H1 0.364209 0.555167 0.73833  0.0999062
 H1 0.863998 0.056099 0.73739  0.0999062
 H1 0.850286 0.541974 0.71168  0.0999062
 H1 0.361958 0.117176 0.8289  0.0999062
 H1 0.361517 0.616064 0.86456  0.0999062
 H1 0.861627 0.116396 0.8638  0.0999062
 H1 0.860147 0.61339 0.83196  0.0999062
 H1 0.13909 0.131283 0.8496  0.0999062
 H1 0.137636 0.615316 0.86698  0.0999062
 H1 0.637722 0.11521 0.86721  0.0999062
 H1 0.637805 0.634258 0.84784  0.0999062
 H1 0.12917 0.057328 0.73160  0.0999062
 H1 0.140768 0.554294 0.74055  0.0999062
 H1 0.640531 0.054548 0.74064  0.0999062
 H1 0.62793 0.560875 0.72943  0.0999062
 H1 0.366756 0.200905 0.48481  0.0999062
 H1 0.355777 0.685996 0.50821  0.0999062
 H1 0.856208 0.187581 0.50629  0.0999062
 H1 0.867078 0.702621 0.48620  0.0999062
 H1 0.145065 0.183365 0.51221  0.0999062
 H1 0.133348 0.701016 0.50566  0.0999062
 H1 0.633566 0.201816 0.50625  0.0999062
 H1 0.645197 0.684143 0.51046  0.0999062
 H1 0.391273 0.303824 0.23989  0.0999062
 H1 0.37857 0.806886 0.23068  0.0999062
 H1 0.878047 0.307924 0.23053  0.0999062
 H1 0.891142 0.802343 0.24082  0.0999062
 H1 0.387999 0.36399 0.36668  0.0999062
 H1 0.388633 0.879898 0.34936  0.0999062
 H1 0.887824 0.380985 0.34922  0.0999062
 H1 0.887803 0.862851 0.36750  0.0999062
 H1 0.110415 0.362825 0.33165  0.0999062
 H1 0.111689 0.866167 0.36425  0.0999062
 H1 0.611889 0.367278 0.36331  0.0999062
 H1 0.611476 0.865701 0.32828  0.0999062
 H1 0.100617 0.291544 0.21123  0.0999062
 H1 0.114602 0.805967 0.23770  0.0999062
 H1 0.614723 0.307413 0.23663  0.0999062
 H1 0.601309 0.794469 0.20794  0.0999062
 H1 0.383981 0.453358 0.  0.0999062
 H1 0.39487 0.935522 0.  0.0999062
 H1 0.896304 0.433913 0.  0.0999062
 H1 0.882371 0.952392 0.  0.0999062
 H1 0.11822 0.452119 0.98723  0.0999062
 H1 0.104909 0.936279 0.00668  0.0999062
 H1 0.606616 0.437928 0.00427  0.0999062
 H1 0.616898 0.952977 0.98576  0.0999062
 H1 0.148738 0.455949 0.29254  0.0999062
 H1 0.135865 0.943046 0.26433  0.0999062
 H1 0.6362 0.444727 0.26374  0.0999062
 H1 0.649953 0.959754 0.2906  0.0999062
 H1 0.139046 0.384343 0.17236  0.0999062
 H1 0.138518 0.883762 0.13744  0.0999062
 H1 0.639137 0.384678 0.13720  0.0999062
 H1 0.639988 0.888329 0.170  0.0999062
 H1 0.361868 0.36898 0.15319  0.0999062
 H1 0.362424 0.885165 0.13462  0.0999062
 H1 0.863003 0.385351 0.13524  0.0999062
 H1 0.862279 0.867177 0.1544  0.0999062
 H1 0.371465 0.442056 0.27187  0.0999062
 H1 0.359313 0.944778 0.26164  0.0999062
 H1 0.859627 0.445804 0.26184  0.0999062
 H1 0.872281 0.940524 0.27287  0.0999062
 H1 0.132309 0.297688 0.5175  0.0999062
 H1 0.145327 0.812768 0.49594  0.0999062
 H1 0.64462 0.313589 0.49633  0.0999062
 H1 0.632095 0.798377 0.51549  0.0999062
 H1 0.354007 0.31521 0.49014  0.0999062
 H1 0.367766 0.797745 0.4983  0.0999062
 H1 0.867275 0.299385 0.49652  0.0999062
 H1 0.853977 0.816824 0.49109  0.0999062
 C1 0.512035 0.203171 0.78894  -0.1453138
 C1 0.497122 0.698044 0.77076  -0.1453138
 C1 0.997602 0.197166 0.77204  -0.1453138
 C1 0.0 0.702263 0.79070  -0.1453138
 C2 0.061549 0.182197 0.73480  -0.0510146333333
 C2 0.07078 0.680486 0.74977  -0.0510146333333
 C2 0.572039 0.180443 0.74812  -0.0510146333333
 C2 0.560955 0.684206 0.73283  -0.0510146333333
 C2 0.063343 0.148209 0.66438  -0.0510146333333
 C2 0.06537 0.63969 0.68396  -0.0510146333333
 C2 0.566135 0.139813 0.6822  -0.0510146333333
 C2 0.562666 0.650224 0.66240  -0.0510146333333
 C1 0.500046 0.122269 0.65618  -0.1453138
 C1 0.500439 0.629619 0.62874  -0.1453138
 C1 0.0 0.128771 0.63008  -0.1453138
 C1 0.999505 0.621091 0.65795  -0.1453138
 C2 0.440507 0.150831 0.69295  -0.0510146333333
 C2 0.436489 0.646953 0.66509  -0.0510146333333
 C2 0.937139 0.147312 0.66569  -0.0510146333333
 C2 0.939541 0.648605 0.69490  -0.0510146333333
 C2 0.446371 0.190679 0.75939  -0.0510146333333
 C2 0.434916 0.680938 0.73536  -0.0510146333333
 C2 0.935493 0.181286 0.73596  -0.0510146333333
 C2 0.944923 0.688532 0.76134  -0.0510146333333
 C3 0.51832 0.233024 0.86632  0.767874533333
 C3 0.494328 0.726027 0.84974  0.767874533333
 C3 0.994283 0.224998 0.85104  0.767874533333
 C3 0.0 0.73252 0.86802  0.767874533333
 C3 0.492537 0.068794 0.59438  0.767874533333
 C3 0.501745 0.586612 0.55658  0.767874533333
 C3 0.0 0.085683 0.55802  0.767874533333
 C3 0.992759 0.567657 0.59595  0.767874533333
 C1 0.492709 0.064886 0.00213  -0.1453138
 C1 0.507585 0.56356 0.9940  -0.1453138
 C1 0.0 0.062045 0.9953  -0.1453138
 C1 0.993488 0.563593 0.00382  -0.1453138
 C2 0.06598 0.026227 0.99821  -0.0510146333333
 C2 0.059922 0.536816 0.9956  -0.0510146333333
 C2 0.559026 0.037907 0.99413  -0.0510146333333
 C2 0.567226 0.527908 0.99655  -0.0510146333333
 C2 0.433466 0.027942 0.  -0.0510146333333
 C2 0.441322 0.53674 0.99753  -0.0510146333333
 C2 0.940162 0.035457 0.99879  -0.0510146333333
 C2 0.934463 0.526447 0.  -0.0510146333333
 C3 0.484632 0.132586 0.00430  0.767874533333
 C3 0.515228 0.629963 0.98851  0.767874533333
 C3 0.0 0.128358 0.98936  0.767874533333
 C3 0.984963 0.631266 0.00592  0.767874533333
 C1 0.240007 0.048974 0.71225  -0.1453138
 C1 0.252741 0.552599 0.73094  -0.1453138
 C1 0.752485 0.053247 0.73048  -0.1453138
 C1 0.738685 0.54943 0.71229  -0.1453138
 C2 0.305721 0.063296 0.74104  -0.0510146333333
 C2 0.314873 0.568293 0.76704  -0.0510146333333
 C2 0.814728 0.068939 0.76636  -0.0510146333333
 C2 0.804103 0.561684 0.74249  -0.0510146333333
 C2 0.311287 0.10371 0.8071  -0.0510146333333
 C2 0.313295 0.602285 0.83730  -0.0510146333333
 C2 0.813331 0.102602 0.8367  -0.0510146333333
 C2 0.809598 0.601557 0.8089  -0.0510146333333
 C1 0.25136 0.131039 0.84435  -0.1453138
 C1 0.249387 0.620987 0.87293  -0.1453138
 C1 0.749506 0.121067 0.87275  -0.1453138
 C1 0.749958 0.630524 0.84505  -0.1453138
 C2 0.18544 0.111676 0.81909  -0.0510146333333
 C2 0.187101 0.601747 0.83860  -0.0510146333333
 C2 0.68713 0.101815 0.83861  -0.0510146333333
 C2 0.684036 0.613318 0.81827  -0.0510146333333
 C2 0.179863 0.070513 0.75356  -0.0510146333333
 C2 0.188823 0.567798 0.76816  -0.0510146333333
 C2 0.688671 0.068096 0.76806  -0.0510146333333
 C2 0.678481 0.572532 0.75248  -0.0510146333333
 C3 0.233823 0.018431 0.63504  0.767874533333
 C3 0.255986 0.524662 0.6519  0.767874533333
 C3 0.755455 0.02571 0.65139  0.767874533333
 C3 0.733062 0.519433 0.63485  0.767874533333
 C3 0.258116 0.18508 0.90564  0.767874533333
 C3 0.248044 0.664009 0.94506  0.767874533333
 C3 0.748498 0.163933 0.94498  0.767874533333
 C3 0.757433 0.684031 0.90682  0.767874533333
 C1 0.256689 0.185681 0.49816  -0.1453138
 C1 0.2438 0.687177 0.5075  -0.1453138
 C1 0.744195 0.188325 0.50678  -0.1453138
 C1 0.756945 0.68694 0.49805  -0.1453138
 C2 0.31574 0.222682 0.49188  -0.0510146333333
 C2 0.310121 0.714167 0.50556  -0.0510146333333
 C2 0.810304 0.21559 0.50416  -0.0510146333333
 C2 0.815944 0.724172 0.4925  -0.0510146333333
 C2 0.190365 0.212662 0.50747  -0.0510146333333
 C2 0.184351 0.722784 0.50402  -0.0510146333333
 C2 0.684423 0.223741 0.50400  -0.0510146333333
 C2 0.690468 0.713626 0.50636  -0.0510146333333
 C3 0.265081 0.117957 0.4956  0.767874533333
 C3 0.235745 0.620707 0.51277  0.767874533333
 C3 0.73685 0.121748 0.51190  0.767874533333
 C3 0.765479 0.619276 0.49578  0.767874533333
 C1 0.988884 0.29781 0.21260  -0.1453138
 C1 0.00311 0.80211 0.23078  -0.1453138
 C1 0.503219 0.303572 0.22969  -0.1453138
 C1 0.48938 0.798692 0.21105  -0.1453138
 C2 0.439311 0.317717 0.26736  -0.0510146333333
 C2 0.429288 0.819882 0.25268  -0.0510146333333
 C2 0.928633 0.320069 0.2532  -0.0510146333333
 C2 0.939152 0.816309 0.26831  -0.0510146333333
 C2 0.43751 0.35115 0.33803  -0.0510146333333
 C2 0.434947 0.860509 0.31858  -0.0510146333333
 C2 0.934123 0.360679 0.31919  -0.0510146333333
 C2 0.937313 0.849917 0.33889  -0.0510146333333
 C1 3e-05 0.378662 0.34553  -0.1453138
 C1 0.999517 0.869702 0.37307  -0.1453138
 C1 0.499714 0.370874 0.37226  -0.1453138
 C1 0.500898 0.879587 0.34396  -0.1453138
 C2 0.059836 0.350464 0.30896  -0.0510146333333
 C2 0.063522 0.851896 0.3371  -0.0510146333333
 C2 0.563687 0.353152 0.33618  -0.0510146333333
 C2 0.560773 0.852499 0.30636  -0.0510146333333
 C2 0.05439 0.310665 0.24242  -0.0510146333333
 C2 0.065229 0.818317 0.26669  -0.0510146333333
 C2 0.565346 0.319723 0.26563  -0.0510146333333
 C2 0.555132 0.812707 0.23987  -0.0510146333333
 C3 0.983099 0.268141 0.13508  0.767874533333
 C3 0.006228 0.774774 0.15169  0.767874533333
 C3 0.506111 0.276287 0.15052  0.767874533333
 C3 0.483011 0.768888 0.13365  0.767874533333
 C3 0.006968 0.43226 0.40731  0.767874533333
 C3 0.997978 0.912461 0.44536  0.767874533333
 C3 0.498127 0.413381 0.44476  0.767874533333
 C3 0.507891 0.933078 0.40590  0.767874533333
 C1 0.008065 0.436524 0.99911  -0.1453138
 C1 0.992867 0.938009 0.  -0.1453138
 C1 0.494561 0.439352 0.  -0.1453138
 C1 0.506655 0.937801 0.99751  -0.1453138
 C2 0.434926 0.475011 0.  -0.0510146333333
 C2 0.440326 0.964763 0.  -0.0510146333333
 C2 0.941626 0.463295 0.  -0.0510146333333
 C2 0.933441 0.973824 0.  -0.0510146333333
 C2 0.067096 0.473683 0.99336  -0.0510146333333
 C2 0.059258 0.964596 0.00454  -0.0510146333333
 C2 0.560832 0.466165 0.00243  -0.0510146333333
 C2 0.565885 0.974736 0.99182  -0.0510146333333
 C3 0.016498 0.368853 0.99701  0.767874533333
 C3 0.984821 0.871688 0.  0.767874533333
 C3 0.486734 0.372959 0.  0.767874533333
 C3 0.514924 0.870151 0.99556  0.767874533333
 C1 0.260592 0.45095 0.29048  -0.1453138
 C1 0.247344 0.945945 0.27158  -0.1453138
 C1 0.747642 0.447421 0.27143  -0.1453138
 C1 0.761539 0.952105 0.29004  -0.1453138
 C2 0.195018 0.437318 0.26109  -0.0510146333333
 C2 0.185211 0.930431 0.23541  -0.0510146333333
 C2 0.685614 0.431825 0.23509  -0.0510146333333
 C2 0.696106 0.939981 0.25985  -0.0510146333333
 C2 0.189636 0.397362 0.19468  -0.0510146333333
 C2 0.186776 0.897308 0.1647  -0.0510146333333
 C2 0.68733 0.398268 0.16460  -0.0510146333333
 C2 0.690553 0.900085 0.1934  -0.0510146333333
 C1 0.249605 0.369885 0.15768  -0.1453138
 C1 0.250675 0.879206 0.1287  -0.1453138
 C1 0.751264 0.379744 0.12886  -0.1453138
 C1 0.750135 0.870977 0.15735  -0.1453138
 C2 0.315465 0.388705 0.18352  -0.0510146333333
 C2 0.312939 0.898244 0.16321  -0.0510146333333
 C2 0.81345 0.398771 0.16352  -0.0510146333333
 C2 0.816086 0.888152 0.1840  -0.0510146333333
 C2 0.320862 0.429358 0.24943  -0.0510146333333
 C2 0.311229 0.931401 0.23403  -0.0510146333333
 C2 0.811591 0.432393 0.23416  -0.0510146333333
 C2 0.821711 0.928938 0.24983  -0.0510146333333
 C3 0.266454 0.480744 0.3679  0.767874533333
 C3 0.244112 0.97312 0.35081  0.767874533333
 C3 0.744286 0.475183 0.35055  0.767874533333
 C3 0.767251 0.981943 0.36751  0.767874533333
 C3 0.242819 0.31618 0.09600  0.767874533333
 C3 0.251998 0.837072 0.05593  0.767874533333
 C3 0.752491 0.337288 0.05625  0.767874533333
 C3 0.742621 0.817303 0.0957  0.767874533333
 C1 0.242376 0.312912 0.50422  -0.1453138
 C1 0.257307 0.811601 0.49660  -0.1453138
 C1 0.756661 0.312841 0.49580  -0.1453138
 C1 0.742226 0.814066 0.50368  -0.1453138
 C2 0.183324 0.275908 0.51046  -0.0510146333333
 C2 0.190987 0.784606 0.49859  -0.0510146333333
 C2 0.69054 0.285598 0.49848  -0.0510146333333
 C2 0.683225 0.776821 0.5091  -0.0510146333333
 C2 0.308697 0.285921 0.4948  -0.0510146333333
 C2 0.316759 0.775994 0.50007  -0.0510146333333
 C2 0.816424 0.277444 0.49870  -0.0510146333333
 C2 0.808699 0.787361 0.49525  -0.0510146333333
 C3 0.234056 0.380664 0.50692  0.767874533333
 C3 0.265144 0.878063 0.49126  0.767874533333
 C3 0.764212 0.379321 0.49039  0.767874533333
 C3 0.733696 0.88178 0.50632  0.767874533333
 O1 0.463254 0.243084 0.90628  -0.705617133333
 O1 0.433738 0.738409 0.87950  -0.705617133333
 O1 0.933415 0.23737 0.88006  -0.705617133333
 O1 0.961034 0.741825 0.90768  -0.705617133333
 O1 0.050211 0.232264 0.8855  -0.705617133333
 O1 0.077552 0.743864 0.89180  -0.705617133333
 O1 0.579747 0.243225 0.88986  -0.705617133333
 O1 0.550701 0.733442 0.88342  -0.705617133333
 O1 0.431687 0.052966 0.57410  -0.705617133333
 O1 0.44362 0.567441 0.53005  -0.705617133333
 O1 0.944528 0.066885 0.53081  -0.705617133333
 O1 0.93228 0.55201 0.5743  -0.705617133333
 O1 0.06122 0.06922 0.52735  -0.705617133333
 O1 0.048009 0.538302 0.57063  -0.705617133333
 O1 0.547535 0.039573 0.56788  -0.705617133333
 O1 0.560336 0.570628 0.52520  -0.705617133333
 O1 0.422908 0.15443 0.01239  -0.705617133333
 O1 0.46093 0.661487 0.98446  -0.705617133333
 O1 0.960666 0.160204 0.98516  -0.705617133333
 O1 0.923229 0.652996 0.0151  -0.705617133333
 O1 0.07675 0.149847 0.98850  -0.705617133333
 O1 0.038503 0.664085 0.99744  -0.705617133333
 O1 0.538507 0.165347 0.99706  -0.705617133333
 O1 0.577116 0.651842 0.9878  -0.705617133333
 O1 0.172488 0.007812 0.61140  -0.705617133333
 O1 0.199985 0.51748 0.617  -0.705617133333
 O1 0.699318 0.018733 0.61729  -0.705617133333
 O1 0.671893 0.509047 0.61069  -0.705617133333
 O1 0.289038 0.008187 0.59534  -0.705617133333
 O1 0.316781 0.512101 0.62286  -0.705617133333
 O1 0.816148 0.01326 0.62197  -0.705617133333
 O1 0.78857 0.509408 0.59557  -0.705617133333
 O1 0.202638 0.213433 0.93218  -0.705617133333
 O1 0.189313 0.680351 0.97580  -0.705617133333
 O1 0.689972 0.181181 0.97564  -0.705617133333
 O1 0.702822 0.714562 0.93186  -0.705617133333
 O1 0.318773 0.202293 0.92540  -0.705617133333
 O1 0.306065 0.682814 0.9722  -0.705617133333
 O1 0.806702 0.181773 0.97232  -0.705617133333
 O1 0.818117 0.698659 0.92850  -0.705617133333
 O1 0.211378 0.085025 0.50296  -0.705617133333
 O1 0.173757 0.598995 0.5127  -0.705617133333
 O1 0.67501 0.099726 0.51241  -0.705617133333
 O1 0.711796 0.586325 0.50316  -0.705617133333
 O1 0.326863 0.096315 0.48724  -0.705617133333
 O1 0.289777 0.589018 0.51742  -0.705617133333
 O1 0.791278 0.090363 0.51580  -0.705617133333
 O1 0.82729 0.597668 0.48759  -0.705617133333
 O1 0.038464 0.258086 0.09562  -0.705617133333
 O1 0.066924 0.762503 0.12219  -0.705617133333
 O1 0.566705 0.26408 0.12072  -0.705617133333
 O1 0.53802 0.759718 0.09347  -0.705617133333
 O1 0.449794 0.269257 0.11673  -0.705617133333
 O1 0.421631 0.757808 0.11029  -0.705617133333
 O1 0.921858 0.258105 0.11098  -0.705617133333
 O1 0.950072 0.767804 0.11761  -0.705617133333
 O1 0.067495 0.447914 0.42877  -0.705617133333
 O1 0.055998 0.931009 0.47270  -0.705617133333
 O1 0.556022 0.432245 0.47214  -0.705617133333
 O1 0.568623 0.949241 0.42630  -0.705617133333
 O1 0.4393 0.42928 0.47561  -0.705617133333
 O1 0.452666 0.961989 0.43234  -0.705617133333
 O1 0.951806 0.461804 0.43255  -0.705617133333
 O1 0.93918 0.928837 0.47594  -0.705617133333
 O1 0.07835 0.347285 0.98971  -0.705617133333
 O1 0.038912 0.839947 0.  -0.705617133333
 O1 0.5409 0.341223 0.  -0.705617133333
 O1 0.576711 0.848469 0.98731  -0.705617133333
 O1 0.424731 0.35134 0.  -0.705617133333
 O1 0.461216 0.837308 0.  -0.705617133333
 O1 0.962736 0.33577 0.  -0.705617133333
 O1 0.922808 0.850076 0.  -0.705617133333
 O1 0.327698 0.491063 0.3919  -0.705617133333
 O1 0.300179 0.980938 0.38505  -0.705617133333
 O1 0.80025 0.482408 0.38497  -0.705617133333
 O1 0.828448 0.992155 0.39162  -0.705617133333
 O1 0.211104 0.490642 0.40749  -0.705617133333
 O1 0.183237 0.984486 0.38019  -0.705617133333
 O1 0.683475 0.487651 0.37970  -0.705617133333
 O1 0.711833 0.991961 0.40691  -0.705617133333
 O1 0.298248 0.288177 0.06870  -0.705617133333
 O1 0.310683 0.821072 0.02486  -0.705617133333
 O1 0.811054 0.32025 0.02550  -0.705617133333
 O1 0.797267 0.786744 0.07088  -0.705617133333
 O1 0.182079 0.298855 0.0766  -0.705617133333
 O1 0.193972 0.818605 0.02853  -0.705617133333
 O1 0.69437 0.319624 0.0285  -0.705617133333
 O1 0.681899 0.802599 0.07420  -0.705617133333
 O1 0.287817 0.413548 0.49961  -0.705617133333
 O1 0.327052 0.899889 0.49047  -0.705617133333
 O1 0.826064 0.401328 0.49040  -0.705617133333
 O1 0.787328 0.914724 0.49866  -0.705617133333
 O1 0.172327 0.402433 0.51542  -0.705617133333
 O1 0.210854 0.909658 0.48738  -0.705617133333
 O1 0.709984 0.410745 0.48565  -0.705617133333
 O1 0.671975 0.903547 0.51516  -0.705617133333
