#======================================================================

# CRYSTAL DATA

#----------------------------------------------------------------------

data_VESTA_phase_1


_pd_phase_name                         MOF
_cell_length_a                         20.75200
_cell_length_b                         20.66700
_cell_length_c                         14.04300
_cell_angle_alpha                      89.84500
_cell_angle_beta                       89.93100
_cell_angle_gamma                      89.74700
_symmetry_space_group_name_H-M         "P 1"
_symmetry_Int_Tables_number            1

loop_
_symmetry_equiv_pos_as_xyz
   "x, y, z"

loop_
   _atom_site_label
   _atom_site_fract_x
   _atom_site_fract_y
   _atom_site_fract_z
 _atom_site_charge
 Y1 0.437755 0.062272 0.62802  2.13854815789
 Y1 0.437754 0.562264 0.62802  2.13854815789
 Y1 0.937748 0.062271 0.62802  2.13854815789
 Y1 0.937747 0.562264 0.62802  2.13854815789
 Y1 0.063238 0.437685 0.12761  2.13854815789
 Y1 0.063238 0.937678 0.12761  2.13854815789
 Y1 0.563231 0.437685 0.12761  2.13854815789
 Y1 0.56323 0.937678 0.12761  2.13854815789
 Y1 0.438142 0.439194 0.87314  2.13854815789
 Y1 0.438141 0.939186 0.87314  2.13854815789
 Y1 0.938134 0.439193 0.87314  2.13854815789
 Y1 0.938134 0.939186 0.87314  2.13854815789
 Y1 0.062301 0.062795 0.37457  2.13854815789
 Y1 0.0623 0.562788 0.37457  2.13854815789
 Y1 0.562293 0.062795 0.37457  2.13854815789
 Y1 0.562292 0.562788 0.37457  2.13854815789
 H1 0.265013 0.03529 0.39583  0.0976381578947
 H1 0.265012 0.53528 0.39583  0.0976381578947
 H1 0.765006 0.03529 0.39583  0.0976381578947
 H1 0.765005 0.535281 0.39583  0.0976381578947
 H1 0.23478 0.465725 0.89530  0.0976381578947
 H1 0.234779 0.965718 0.89530  0.0976381578947
 H1 0.734773 0.465726 0.89530  0.0976381578947
 H1 0.734772 0.96572 0.89530  0.0976381578947
 H1 0.461614 0.26393 0.64453  0.0976381578947
 H1 0.461609 0.763922 0.64453  0.0976381578947
 H1 0.961605 0.263929 0.64453  0.0976381578947
 H1 0.961604 0.763922 0.64453  0.0976381578947
 H1 0.037141 0.235928 0.14336  0.0976381578947
 H1 0.03714 0.735921 0.14336  0.0976381578947
 H1 0.537137 0.235929 0.14336  0.0976381578947
 H1 0.537137 0.735921 0.14336  0.0976381578947
 H1 0.234772 0.038372 0.60716  0.0976381578947
 H1 0.234771 0.538365 0.60716  0.0976381578947
 H1 0.734765 0.038373 0.60716  0.0976381578947
 H1 0.734763 0.538365 0.60716  0.0976381578947
 H1 0.265847 0.465096 0.10690  0.0976381578947
 H1 0.265847 0.965088 0.10690  0.0976381578947
 H1 0.76584 0.465096 0.10690  0.0976381578947
 H1 0.765839 0.965089 0.10690  0.0976381578947
 H1 0.035183 0.264981 0.35737  0.0976381578947
 H1 0.035181 0.764973 0.35737  0.0976381578947
 H1 0.535177 0.264981 0.35737  0.0976381578947
 H1 0.535171 0.764974 0.35737  0.0976381578947
 H1 0.464732 0.237443 0.85576  0.0976381578947
 H1 0.464732 0.737435 0.85576  0.0976381578947
 H1 0.964722 0.237443 0.85576  0.0976381578947
 H1 0.964721 0.737435 0.85576  0.0976381578947
 H1 0.444772 0.000417 0.25161  0.0976381578947
 H1 0.444771 0.500408 0.25161  0.0976381578947
 H1 0.944765 0.000418 0.25161  0.0976381578947
 H1 0.944764 0.50041 0.25161  0.0976381578947
 H1 0.055437 0.000191 0.7501  0.0976381578947
 H1 0.055436 0.500183 0.7501  0.0976381578947
 H1 0.55543 0.000193 0.75016  0.0976381578947
 H1 0.555429 0.500185 0.7501  0.0976381578947
 H1 0.0007 0.444732 0.50317  0.0976381578947
 H1 0.0007 0.944725 0.50317  0.0976381578947
 H1 0.500696 0.444732 0.50317  0.0976381578947
 H1 0.500694 0.944725 0.50317  0.0976381578947
 H1 0.001456 0.056417 0.9985  0.0976381578947
 H1 0.0 0.55641 0.99852  0.0976381578947
 H1 0.50145 0.056418 0.99851  0.0976381578947
 H1 0.501449 0.55641 0.99851  0.0976381578947
 C1 0.291758 0.019997 0.33296  0.0423231578947
 C1 0.291757 0.519988 0.33296  0.0423231578947
 C1 0.791751 0.019997 0.33296  0.0423231578947
 C1 0.79175 0.519989 0.33296  0.0423231578947
 C2 0.35923 0.019536 0.3332  -0.196318508772
 C2 0.359229 0.519526 0.3332  -0.196318508772
 C2 0.859223 0.019537 0.33328  -0.196318508772
 C2 0.859222 0.519528 0.3332  -0.196318508772
 C3 0.397375 0.037487 0.41899  0.805591491228
 C3 0.397374 0.537478 0.41899  0.805591491228
 C3 0.897368 0.037487 0.41899  0.805591491228
 C3 0.897367 0.537479 0.41899  0.805591491228
 C1 0.208251 0.481359 0.83239  0.0423231578947
 C1 0.208251 0.981353 0.832  0.0423231578947
 C1 0.708244 0.48136 0.83239  0.0423231578947
 C1 0.708243 0.981354 0.832  0.0423231578947
 C2 0.140802 0.481388 0.83234  -0.196318508772
 C2 0.140802 0.98138 0.83234  -0.196318508772
 C2 0.640795 0.481389 0.83234  -0.196318508772
 C2 0.640794 0.981383 0.83234  -0.196318508772
 C3 0.102854 0.46277 0.9181  0.805591491228
 C3 0.102853 0.962763 0.9181  0.805591491228
 C3 0.602847 0.462771 0.91816  0.805591491228
 C3 0.602846 0.962764 0.9181  0.805591491228
 C1 0.477884 0.290708 0.58214  0.0423231578947
 C1 0.47788 0.7907 0.58214  0.0423231578947
 C1 0.977876 0.290707 0.58214  0.0423231578947
 C1 0.977874 0.7907 0.58214  0.0423231578947
 C2 0.479447 0.358491 0.58344  -0.196318508772
 C2 0.479443 0.858484 0.58344  -0.196318508772
 C2 0.979437 0.35849 0.58344  -0.196318508772
 C2 0.979437 0.858483 0.58344  -0.196318508772
 C3 0.461515 0.394992 0.67092  0.805591491228
 C3 0.461513 0.894985 0.67092  0.805591491228
 C3 0.961506 0.394992 0.67092  0.805591491228
 C3 0.961506 0.894984 0.67092  0.805591491228
 C1 0.021365 0.209714 0.08045  0.0423231578947
 C1 0.021366 0.709706 0.08045  0.0423231578947
 C1 0.521361 0.209714 0.08045  0.0423231578947
 C1 0.521361 0.709707 0.08045  0.0423231578947
 C2 0.020767 0.141964 0.08051  -0.196318508772
 C2 0.020763 0.641956 0.08051  -0.196318508772
 C2 0.520762 0.141964 0.08051  -0.196318508772
 C2 0.520761 0.641957 0.08051  -0.196318508772
 C3 0.039047 0.104263 0.16696  0.805591491228
 C3 0.039044 0.604255 0.1669  0.805591491228
 C3 0.53904 0.104263 0.16696  0.805591491228
 C3 0.53904 0.604256 0.16696  0.805591491228
 C1 0.208267 0.022297 0.66983  0.0423231578947
 C1 0.208266 0.522288 0.66983  0.0423231578947
 C1 0.70826 0.022297 0.66983  0.0423231578947
 C1 0.708258 0.52229 0.66983  0.0423231578947
 C2 0.140802 0.020967 0.66918  -0.196318508772
 C2 0.140801 0.520961 0.66918  -0.196318508772
 C2 0.640795 0.020971 0.66918  -0.196318508772
 C2 0.640794 0.520962 0.66918  -0.196318508772
 C3 0.102863 0.038899 0.58303  0.805591491228
 C3 0.102862 0.538892 0.58303  0.805591491228
 C3 0.602856 0.038901 0.58303  0.805591491228
 C3 0.602855 0.538893 0.58303  0.805591491228
 C1 0.292213 0.480476 0.16986  0.0423231578947
 C1 0.292213 0.980468 0.16986  0.0423231578947
 C1 0.792206 0.480477 0.16986  0.0423231578947
 C1 0.792206 0.980469 0.16986  0.0423231578947
 C2 0.359684 0.481225 0.16972  -0.196318508772
 C2 0.359684 0.981219 0.16972  -0.196318508772
 C2 0.859677 0.481226 0.16972  -0.196318508772
 C2 0.859676 0.981219 0.16972  -0.196318508772
 C3 0.398509 0.46344 0.08427  0.805591491228
 C3 0.398508 0.963433 0.08427  0.805591491228
 C3 0.898501 0.46344 0.08427  0.805591491228
 C3 0.898501 0.963433 0.08427  0.805591491228
 C1 0.019298 0.291303 0.42031  0.0423231578947
 C1 0.019296 0.791296 0.42031  0.0423231578947
 C1 0.519292 0.291304 0.42031  0.0423231578947
 C1 0.519287 0.791297 0.42031  0.0423231578947
 C2 0.019304 0.359053 0.42060  -0.196318508772
 C2 0.019304 0.859046 0.42060  -0.196318508772
 C2 0.519299 0.359053 0.42060  -0.196318508772
 C2 0.519296 0.859046 0.42060  -0.196318508772
 C3 0.038501 0.396319 0.33419  0.805591491228
 C3 0.0385 0.896311 0.33419  0.805591491228
 C3 0.538495 0.396319 0.33419  0.805591491228
 C3 0.538493 0.896312 0.33419  0.805591491228
 C1 0.480634 0.210547 0.91833  0.0423231578947
 C1 0.480634 0.710539 0.91833  0.0423231578947
 C1 0.980624 0.210546 0.91833  0.0423231578947
 C1 0.980624 0.710539 0.91833  0.0423231578947
 C2 0.481587 0.142759 0.91750  -0.196318508772
 C2 0.481586 0.642752 0.91750  -0.196318508772
 C2 0.981577 0.142759 0.91750  -0.196318508772
 C2 0.981573 0.642752 0.91750  -0.196318508772
 C3 0.463354 0.105956 0.83067  0.805591491228
 C3 0.463353 0.605949 0.83067  0.805591491228
 C3 0.963346 0.105956 0.83067  0.805591491228
 C3 0.963344 0.605949 0.83067  0.805591491228
 C2 0.258472 0.000138 0.25140  -0.196318508772
 C2 0.258471 0.500129 0.25140  -0.196318508772
 C2 0.758465 0.000139 0.25140  -0.196318508772
 C2 0.758464 0.50013 0.25140  -0.196318508772
 C3 0.186289 1.6e-05 0.25155  0.805591491228
 C3 0.186288 0.500008 0.25155  0.805591491228
 C3 0.686282 1.6e-05 0.25155  0.805591491228
 C3 0.686281 0.500009 0.25155  0.805591491228
 C1 0.392484 0.000411 0.25156  0.0423231578947
 C1 0.392483 0.500403 0.25156  0.0423231578947
 C1 0.892477 0.000411 0.25156  0.0423231578947
 C1 0.892476 0.500404 0.25156  0.0423231578947
 C2 0.241756 0.002096 0.75128  -0.196318508772
 C2 0.241755 0.502089 0.75128  -0.196318508772
 C2 0.741749 0.002098 0.75128  -0.196318508772
 C2 0.741748 0.50209 0.75128  -0.196318508772
 C3 0.313864 0.002364 0.7517  0.805591491228
 C3 0.313863 0.502357 0.75174  0.805591491228
 C3 0.813856 0.002365 0.75174  0.805591491228
 C3 0.813855 0.502357 0.7517  0.805591491228
 C1 0.107716 0.000804 0.75054  0.0423231578947
 C1 0.107715 0.500796 0.7505  0.0423231578947
 C1 0.607709 0.000805 0.75054  0.0423231578947
 C1 0.607708 0.500797 0.75054  0.0423231578947
 C2 0.998296 0.257322 0.50085  -0.196318508772
 C2 0.998296 0.757315 0.5008  -0.196318508772
 C2 0.498291 0.257323 0.50086  -0.196318508772
 C2 0.498286 0.757316 0.50085  -0.196318508772
 C3 0.998405 0.184867 0.50012  0.805591491228
 C3 0.998404 0.68486 0.50012  0.805591491228
 C3 0.498399 0.184867 0.50012  0.805591491228
 C3 0.498394 0.68486 0.50012  0.805591491228
 C1 0.999819 0.392192 0.50247  0.0423231578947
 C1 0.999818 0.892185 0.5024  0.0423231578947
 C1 0.499814 0.392192 0.50247  0.0423231578947
 C1 0.499811 0.892185 0.50247  0.0423231578947
 C2 0.000928 0.243818 0.99960  -0.196318508772
 C2 0.000925 0.74381 0.99960  -0.196318508772
 C2 0.500923 0.243818 0.99960  -0.196318508772
 C2 0.500923 0.743811 0.99960  -0.196318508772
 C3 0.000757 0.316287 0.00021  0.805591491228
 C3 0.000757 0.81628 0.00021  0.805591491228
 C3 0.500752 0.316287 0.00021  0.805591491228
 C3 0.500752 0.81628 0.00021  0.805591491228
 C1 0.001254 0.108966 0.9988  0.0423231578947
 C1 0.001253 0.608959 0.99881  0.0423231578947
 C1 0.501249 0.108967 0.99881  0.0423231578947
 C1 0.501249 0.608959 0.99881  0.0423231578947
 O1 0.369933 0.041007 0.499  -0.731041842105
 O1 0.369932 0.540998 0.499  -0.731041842105
 O1 0.869926 0.041006 0.499  -0.731041842105
 O1 0.869925 0.540999 0.499  -0.731041842105
 O1 0.158071 0.041819 0.30360  -0.731041842105
 O1 0.15807 0.541811 0.30360  -0.731041842105
 O1 0.658064 0.041819 0.30360  -0.731041842105
 O1 0.658063 0.541812 0.30360  -0.731041842105
 O1 0.457879 0.04716 0.40861  -0.731041842105
 O1 0.457878 0.547152 0.40861  -0.731041842105
 O1 0.957872 0.04716 0.40861  -0.731041842105
 O1 0.957871 0.547152 0.40861  -0.731041842105
 O1 0.13059 0.458502 0.99863  -0.731041842105
 O1 0.130589 0.958496 0.99863  -0.731041842105
 O1 0.630583 0.458503 0.99863  -0.731041842105
 O1 0.630582 0.958495 0.99863  -0.731041842105
 O1 0.341972 0.460562 0.8041  -0.731041842105
 O1 0.341971 0.960555 0.80413  -0.731041842105
 O1 0.841964 0.460562 0.8041  -0.731041842105
 O1 0.841963 0.960555 0.8041  -0.731041842105
 O1 0.042254 0.453376 0.90847  -0.731041842105
 O1 0.042253 0.953371 0.90847  -0.731041842105
 O1 0.542247 0.453377 0.90847  -0.731041842105
 O1 0.542246 0.95337 0.90847  -0.731041842105
 O1 0.455296 0.365088 0.74960  -0.731041842105
 O1 0.455295 0.865081 0.74960  -0.731041842105
 O1 0.955289 0.365087 0.74960  -0.731041842105
 O1 0.955288 0.865079 0.74960  -0.731041842105
 O1 0.456024 0.156302 0.55036  -0.731041842105
 O1 0.456021 0.656294 0.55036  -0.731041842105
 O1 0.956017 0.156302 0.55036  -0.731041842105
 O1 0.956015 0.656294 0.55036  -0.731041842105
 O1 0.454483 0.456711 0.66617  -0.731041842105
 O1 0.454481 0.956704 0.66617  -0.731041842105
 O1 0.954474 0.456711 0.66617  -0.731041842105
 O1 0.954474 0.956703 0.66617  -0.731041842105
 O1 0.044246 0.132901 0.24665  -0.731041842105
 O1 0.044246 0.632894 0.24665  -0.731041842105
 O1 0.544239 0.132901 0.24665  -0.731041842105
 O1 0.544238 0.632894 0.24665  -0.731041842105
 O1 0.043239 0.343942 0.051  -0.731041842105
 O1 0.043242 0.843935 0.05109  -0.731041842105
 O1 0.543235 0.343943 0.05109  -0.731041842105
 O1 0.543235 0.843935 0.05109  -0.731041842105
 O1 0.047343 0.043047 0.15921  -0.731041842105
 O1 0.047343 0.54304 0.15921  -0.731041842105
 O1 0.547336 0.043047 0.15921  -0.731041842105
 O1 0.547335 0.54304 0.15921  -0.731041842105
 O1 0.130942 0.044003 0.50291  -0.731041842105
 O1 0.130941 0.543993 0.50291  -0.731041842105
 O1 0.630935 0.044001 0.50291  -0.731041842105
 O1 0.630934 0.543995 0.50291  -0.731041842105
 O1 0.341949 0.044256 0.69975  -0.731041842105
 O1 0.341948 0.544248 0.69975  -0.731041842105
 O1 0.841942 0.044255 0.69975  -0.731041842105
 O1 0.841941 0.544248 0.69975  -0.731041842105
 O1 0.041866 0.04687 0.59175  -0.731041842105
 O1 0.041865 0.546862 0.59175  -0.731041842105
 O1 0.541858 0.04687 0.59175  -0.731041842105
 O1 0.541857 0.546863 0.59175  -0.731041842105
 O1 0.37184 0.460957 0.00287  -0.731041842105
 O1 0.371839 0.960949 0.00287  -0.731041842105
 O1 0.871833 0.460957 0.00287  -0.731041842105
 O1 0.871832 0.960949 0.00287  -0.731041842105
 O1 0.158389 0.458157 0.19973  -0.731041842105
 O1 0.158389 0.958149 0.19973  -0.731041842105
 O1 0.658382 0.458157 0.19973  -0.731041842105
 O1 0.658382 0.958149 0.19973  -0.731041842105
 O1 0.458767 0.452825 0.09566  -0.731041842105
 O1 0.458766 0.952817 0.09566  -0.731041842105
 O1 0.958759 0.452825 0.09566  -0.731041842105
 O1 0.958758 0.952817 0.09566  -0.731041842105
 O1 0.04424 0.367314 0.25482  -0.731041842105
 O1 0.044238 0.867307 0.25482  -0.731041842105
 O1 0.544232 0.367315 0.25482  -0.731041842105
 O1 0.544231 0.867307 0.25482  -0.731041842105
 O1 0.041204 0.15727 0.44919  -0.731041842105
 O1 0.041203 0.657263 0.44919  -0.731041842105
 O1 0.541197 0.15727 0.44919  -0.731041842105
 O1 0.541194 0.657264 0.44919  -0.731041842105
 O1 0.04709 0.45749 0.34150  -0.731041842105
 O1 0.047089 0.957482 0.34150  -0.731041842105
 O1 0.547083 0.45749 0.34150  -0.731041842105
 O1 0.547082 0.957483 0.34150  -0.731041842105
 O1 0.457916 0.135263 0.75130  -0.731041842105
 O1 0.457915 0.635256 0.75130  -0.731041842105
 O1 0.957908 0.135263 0.75130  -0.731041842105
 O1 0.957909 0.635256 0.75130  -0.731041842105
 O1 0.458176 0.344726 0.94993  -0.731041842105
 O1 0.458176 0.844719 0.94993  -0.731041842105
 O1 0.958168 0.344726 0.94993  -0.731041842105
 O1 0.958169 0.844719 0.94993  -0.731041842105
 O1 0.45519 0.04459 0.83720  -0.731041842105
 O1 0.455188 0.544582 0.83720  -0.731041842105
 O1 0.955182 0.044589 0.83720  -0.731041842105
 O1 0.955182 0.544582 0.83720  -0.731041842105
