#======================================================================

# CRYSTAL DATA

#----------------------------------------------------------------------

data_VESTA_phase_1


_pd_phase_name                         MOF
_cell_length_a                         21.93300
_cell_length_b                         21.94700
_cell_length_c                         15.97800
_cell_angle_alpha                      89.99600
_cell_angle_beta                       90.00000
_cell_angle_gamma                      89.96200
_symmetry_space_group_name_H-M         "P 1"
_symmetry_Int_Tables_number            1

loop_
_symmetry_equiv_pos_as_xyz
   "x, y, z"

loop_
   _atom_site_label
   _atom_site_fract_x
   _atom_site_fract_y
   _atom_site_fract_z
 _atom_site_charge
 Fe1 6.4e-05 0.99999 0.99976  0.638831481481
 Fe1 7.5e-05 0.499991 0.99977  0.638831481481
 Fe1 0.500025 0.999985 0.99974  0.638831481481
 Fe1 0.500017 0.500006 0.99978  0.638831481481
 Fe1 0.249865 0.999982 0.4997  0.638831481481
 Fe1 0.249891 0.500057 0.49977  0.638831481481
 Fe1 0.750198 2.4e-05 0.49970  0.638831481481
 Fe1 0.750183 0.499939 0.49975  0.638831481481
 Fe1 0.000114 0.249838 0.49972  0.638831481481
 Fe1 2e-05 0.750171 0.49978  0.638831481481
 Fe1 0.499988 0.249843 0.49973  0.638831481481
 Fe1 0.500057 0.750149 0.49978  0.638831481481
 Fe1 0.249879 0.249786 0.99979  0.638831481481
 Fe1 0.249897 0.750128 0.99977  0.638831481481
 Fe1 0.750166 0.249883 0.99976  0.638831481481
 Fe1 0.750197 0.750194 0.99973  0.638831481481
 C1 0.080107 0.022735 0.25387  -0.124971851852
 C1 0.080063 0.522942 0.25396  -0.124971851852
 C1 0.580208 0.022825 0.25382  -0.124971851852
 C1 0.580191 0.522985 0.25390  -0.124971851852
 C1 0.055924 0.064488 0.31178  -0.124971851852
 C1 0.055923 0.564722 0.31187  -0.124971851852
 C1 0.556104 0.064585 0.31178  -0.124971851852
 C1 0.556138 0.56477 0.31188  -0.124971851852
 C1 0.080741 0.081797 0.39082  -0.124971851852
 C1 0.080776 0.582083 0.39089  -0.124971851852
 C1 0.581011 0.081933 0.3907  -0.124971851852
 C1 0.581065 0.582125 0.39088  -0.124971851852
 C2 0.053526 0.015361 0.17455  0.363658481481
 C2 0.053452 0.515509 0.17465  0.363658481481
 C2 0.553528 0.015409 0.17455  0.363658481481
 C2 0.553487 0.515543 0.17464  0.363658481481
 C2 0.133453 0.488094 0.26646  0.363658481481
 C2 0.133508 0.987909 0.26639  0.363658481481
 C2 0.633592 0.488134 0.26630  0.363658481481
 C2 0.633618 0.987991 0.26623  0.363658481481
 C2 0.9997 0.092731 0.2887  0.363658481481
 C2 0.999652 0.592901 0.28886  0.363658481481
 C2 0.499819 0.092777 0.28885  0.363658481481
 C2 0.499857 0.592975 0.28897  0.363658481481
 C2 0.383926 0.056473 0.07368  0.363658481481
 C2 0.383958 0.556722 0.07362  0.363658481481
 C2 0.883929 0.056432 0.07361  0.363658481481
 C2 0.883966 0.55662 0.07359  0.363658481481
 C2 0.053853 0.119178 0.93436  0.363658481481
 C2 0.053988 0.619149 0.93430  0.363658481481
 C2 0.554077 0.11912 0.93439  0.363658481481
 C2 0.554236 0.619083 0.93434  0.363658481481
 C1 0.169973 0.477102 0.75399  -0.124971851852
 C1 0.16989 0.977273 0.7539  -0.124971851852
 C1 0.669881 0.477008 0.75384  -0.124971851852
 C1 0.669912 0.977191 0.7537  -0.124971851852
 C1 0.194092 0.435315 0.81192  -0.124971851852
 C1 0.194079 0.935529 0.81185  -0.124971851852
 C1 0.693996 0.435272 0.81185  -0.124971851852
 C1 0.694056 0.935467 0.81174  -0.124971851852
 C1 0.169214 0.417963 0.89094  -0.124971851852
 C1 0.169248 0.918202 0.8908  -0.124971851852
 C1 0.669141 0.41792 0.89088  -0.124971851852
 C1 0.669208 0.918144 0.89078  -0.124971851852
 C2 0.196546 0.484506 0.67465  0.363658481481
 C2 0.196445 0.984629 0.67458  0.363658481481
 C2 0.696576 0.484417 0.67456  0.363658481481
 C2 0.696574 0.984581 0.67445  0.363658481481
 C2 0.116492 0.012108 0.76642  0.363658481481
 C2 0.116604 0.511981 0.76649  0.363658481481
 C2 0.61651 0.012029 0.76619  0.363658481481
 C2 0.616482 0.511855 0.76625  0.363658481481
 C2 0.25034 0.407085 0.7889  0.363658481481
 C2 0.250316 0.907299 0.78881  0.363658481481
 C2 0.750289 0.407106 0.78891  0.363658481481
 C2 0.750328 0.907265 0.78879  0.363658481481
 C2 0.365945 0.443305 0.57367  0.363658481481
 C2 0.365962 0.943449 0.57373  0.363658481481
 C2 0.866233 0.443279 0.57361  0.363658481481
 C2 0.866249 0.943559 0.57367  0.363658481481
 C2 0.195964 0.380917 0.43430  0.363658481481
 C2 0.196035 0.880825 0.43440  0.363658481481
 C2 0.695984 0.38088 0.43429  0.363658481481
 C2 0.696141 0.880908 0.43434  0.363658481481
 C1 0.420003 0.272937 0.24544  -0.124971851852
 C1 0.420088 0.773028 0.24546  -0.124971851852
 C1 0.9201 0.272884 0.24545  -0.124971851852
 C1 0.920095 0.773027 0.24547  -0.124971851852
 C1 0.444012 0.31464 0.18735  -0.124971851852
 C1 0.444143 0.81466 0.18732  -0.124971851852
 C1 0.944182 0.314581 0.18741  -0.124971851852
 C1 0.944261 0.814635 0.18739  -0.124971851852
 C1 0.419023 0.331958 0.1083  -0.124971851852
 C1 0.41916 0.831959 0.10831  -0.124971851852
 C1 0.919286 0.331901 0.1083  -0.124971851852
 C1 0.919397 0.831912 0.10831  -0.124971851852
 C2 0.446686 0.265606 0.32476  0.363658481481
 C2 0.446746 0.765762 0.32480  0.363658481481
 C2 0.946739 0.265553 0.32479  0.363658481481
 C2 0.946682 0.765761 0.32484  0.363658481481
 C2 0.366663 0.238053 0.23309  0.363658481481
 C2 0.366733 0.738174 0.23310  0.363658481481
 C2 0.866764 0.238013 0.23301  0.363658481481
 C2 0.866729 0.738206 0.23303  0.363658481481
 C2 0.500312 0.342801 0.21010  0.363658481481
 C2 0.500472 0.842781 0.21002  0.363658481481
 C2 0.0 0.342737 0.21029  0.363658481481
 C2 0.0 0.842759 0.21024  0.363658481481
 C2 0.116204 0.306489 0.42613  0.363658481481
 C2 0.116165 0.806576 0.42613  0.363658481481
 C2 0.616075 0.306573 0.42610  0.363658481481
 C2 0.616184 0.8067 0.42612  0.363658481481
 C2 0.445861 0.368906 0.5655  0.363658481481
 C2 0.445939 0.869155 0.56553  0.363658481481
 C2 0.946184 0.368961 0.56549  0.363658481481
 C2 0.946171 0.869259 0.56554  0.363658481481
 C1 0.329939 0.226898 0.74549  -0.124971851852
 C1 0.33001 0.727037 0.74552  -0.124971851852
 C1 0.829955 0.227037 0.74537  -0.124971851852
 C1 0.829961 0.72711 0.74535  -0.124971851852
 C1 0.30584 0.185286 0.68737  -0.124971851852
 C1 0.305972 0.68536 0.68743  -0.124971851852
 C1 0.805874 0.185393 0.68728  -0.124971851852
 C1 0.805926 0.685371 0.68735  -0.124971851852
 C1 0.330768 0.167992 0.60833  -0.124971851852
 C1 0.33092 0.66804 0.60840  -0.124971851852
 C1 0.830852 0.168092 0.6082  -0.124971851852
 C1 0.83089 0.668055 0.60834  -0.124971851852
 C2 0.303266 0.234184 0.82482  0.363658481481
 C2 0.303288 0.734395 0.82481  0.363658481481
 C2 0.803339 0.234311 0.82472  0.363658481481
 C2 0.803348 0.734448 0.82470  0.363658481481
 C2 0.383323 0.261707 0.73312  0.363658481481
 C2 0.383382 0.76187 0.73317  0.363658481481
 C2 0.883324 0.261861 0.73297  0.363658481481
 C2 0.883288 0.761994 0.7329  0.363658481481
 C2 0.249518 0.157178 0.71012  0.363658481481
 C2 0.249661 0.657234 0.71021  0.363658481481
 C2 0.749565 0.157257 0.71003  0.363658481481
 C2 0.749671 0.657166 0.71019  0.363658481481
 C2 0.133741 0.193409 0.92614  0.363658481481
 C2 0.133799 0.693523 0.92615  0.363658481481
 C2 0.633987 0.193385 0.92612  0.363658481481
 C2 0.634065 0.693492 0.92613  0.363658481481
 C2 0.303906 0.130714 0.06551  0.363658481481
 C2 0.303954 0.631012 0.06551  0.363658481481
 C2 0.804017 0.130759 0.06543  0.363658481481
 C2 0.804074 0.631013 0.06544  0.363658481481
 C1 0.419875 0.477021 0.74562  -0.124971851852
 C1 0.419851 0.977192 0.74564  -0.124971851852
 C1 0.92001 0.477036 0.74558  -0.124971851852
 C1 0.919948 0.977253 0.7456  -0.124971851852
 C1 0.443927 0.435223 0.68766  -0.124971851852
 C1 0.443959 0.935428 0.68768  -0.124971851852
 C1 0.944148 0.43526 0.68765  -0.124971851852
 C1 0.94413 0.935507 0.68772  -0.124971851852
 C1 0.419002 0.417867 0.60867  -0.124971851852
 C1 0.419052 0.918075 0.60869  -0.124971851852
 C1 0.919305 0.417907 0.60862  -0.124971851852
 C1 0.919314 0.918194 0.60868  -0.124971851852
 C2 0.446565 0.484467 0.82489  0.363658481481
 C2 0.446523 0.984598 0.82491  0.363658481481
 C2 0.946637 0.484468 0.82488  0.363658481481
 C2 0.94655 0.984631 0.82495  0.363658481481
 C2 0.366439 0.012021 0.73322  0.363658481481
 C2 0.366484 0.511883 0.7332  0.363658481481
 C2 0.866541 0.01207 0.73313  0.363658481481
 C2 0.866622 0.511887 0.73308  0.363658481481
 C2 0.500201 0.407011 0.71059  0.363658481481
 C2 0.50024 0.907233 0.71062  0.363658481481
 C2 0.0 0.407081 0.71068  0.363658481481
 C2 0.0 0.90727 0.71079  0.363658481481
 C2 0.116159 0.44338 0.92594  0.363658481481
 C2 0.116178 0.943577 0.92586  0.363658481481
 C2 0.616071 0.443294 0.92591  0.363658481481
 C2 0.616123 0.943496 0.92578  0.363658481481
 C2 0.445813 0.38092 0.06518  0.363658481481
 C2 0.445984 0.880865 0.06509  0.363658481481
 C2 0.946093 0.380853 0.06522  0.363658481481
 C2 0.946223 0.880819 0.06513  0.363658481481
 C1 0.330167 0.022782 0.24573  -0.124971851852
 C1 0.330183 0.522991 0.24568  -0.124971851852
 C1 0.830188 0.022739 0.24554  -0.124971851852
 C1 0.830114 0.522904 0.24553  -0.124971851852
 C1 0.30601 0.0645 0.1877  -0.124971851852
 C1 0.306053 0.564736 0.18770  -0.124971851852
 C1 0.806012 0.064483 0.18761  -0.124971851852
 C1 0.806013 0.56469 0.18759  -0.124971851852
 C1 0.330845 0.081824 0.10869  -0.124971851852
 C1 0.330889 0.582092 0.10865  -0.124971851852
 C1 0.830859 0.081814 0.10858  -0.124971851852
 C1 0.830906 0.582038 0.10858  -0.124971851852
 C2 0.303507 0.015396 0.32502  0.363658481481
 C2 0.303506 0.515576 0.32497  0.363658481481
 C2 0.803625 0.015389 0.32489  0.363658481481
 C2 0.803522 0.515499 0.32487  0.363658481481
 C2 0.383576 0.488139 0.23324  0.363658481481
 C2 0.38358 0.987962 0.23328  0.363658481481
 C2 0.883482 0.48802 0.23305  0.363658481481
 C2 0.883581 0.987896 0.23306  0.363658481481
 C2 0.249739 0.092698 0.21070  0.363658481481
 C2 0.249771 0.592904 0.21068  0.363658481481
 C2 0.749768 0.092711 0.21063  0.363658481481
 C2 0.749759 0.592921 0.21055  0.363658481481
 C2 0.133812 0.056434 0.42581  0.363658481481
 C2 0.133851 0.556711 0.42590  0.363658481481
 C2 0.634104 0.056563 0.42573  0.363658481481
 C2 0.634123 0.556693 0.42587  0.363658481481
 C2 0.303896 0.119109 0.56513  0.363658481481
 C2 0.304064 0.619122 0.56524  0.363658481481
 C2 0.80407 0.11917 0.56508  0.363658481481
 C2 0.80415 0.61907 0.56520  0.363658481481
 C1 0.079968 0.226992 0.75405  -0.124971851852
 C1 0.079964 0.727121 0.75407  -0.124971851852
 C1 0.579985 0.226966 0.75404  -0.124971851852
 C1 0.580076 0.727038 0.75405  -0.124971851852
 C1 0.055801 0.185371 0.81211  -0.124971851852
 C1 0.055879 0.685423 0.81210  -0.124971851852
 C1 0.55593 0.185334 0.81218  -0.124971851852
 C1 0.556058 0.685353 0.81216  -0.124971851852
 C1 0.08067 0.168088 0.89118  -0.124971851852
 C1 0.080777 0.668108 0.89115  -0.124971851852
 C1 0.580904 0.168035 0.89119  -0.124971851852
 C1 0.58104 0.668034 0.89117  -0.124971851852
 C2 0.053401 0.234263 0.67467  0.363658481481
 C2 0.053341 0.734444 0.67472  0.363658481481
 C2 0.553326 0.234229 0.67470  0.363658481481
 C2 0.553377 0.734376 0.67474  0.363658481481
 C2 0.133328 0.261819 0.76651  0.363658481481
 C2 0.133297 0.761995 0.76651  0.363658481481
 C2 0.633336 0.261827 0.76640  0.363658481481
 C2 0.633438 0.761895 0.76636  0.363658481481
 C2 0.999517 0.157239 0.78924  0.363658481481
 C2 0.99961 0.657263 0.78922  0.363658481481
 C2 0.499609 0.157203 0.78947  0.363658481481
 C2 0.499748 0.657207 0.7894  0.363658481481
 C2 0.383866 0.193295 0.57338  0.363658481481
 C2 0.383968 0.693431 0.57341  0.363658481481
 C2 0.883954 0.193411 0.57339  0.363658481481
 C2 0.883906 0.693512 0.57337  0.363658481481
 C2 0.053897 0.13073 0.43397  0.363658481481
 C2 0.053914 0.631042 0.43401  0.363658481481
 C2 0.554119 0.130846 0.43395  0.363658481481
 C2 0.554198 0.631083 0.4340  0.363658481481
 C1 0.170125 0.272872 0.25415  -0.124971851852
 C1 0.170112 0.772958 0.25413  -0.124971851852
 C1 0.670053 0.272977 0.25399  -0.124971851852
 C1 0.670119 0.773095 0.25400  -0.124971851852
 C1 0.194177 0.314608 0.31215  -0.124971851852
 C1 0.194212 0.814603 0.31220  -0.124971851852
 C1 0.694085 0.314647 0.31210  -0.124971851852
 C1 0.694203 0.81472 0.31212  -0.124971851852
 C1 0.169227 0.331931 0.39116  -0.124971851852
 C1 0.169258 0.831897 0.39121  -0.124971851852
 C1 0.669127 0.331965 0.3911  -0.124971851852
 C1 0.669272 0.832015 0.39116  -0.124971851852
 C2 0.196724 0.265532 0.17480  0.363658481481
 C2 0.196706 0.765685 0.17477  0.363658481481
 C2 0.696785 0.265627 0.1747  0.363658481481
 C2 0.6968 0.765805 0.17468  0.363658481481
 C2 0.116794 0.237995 0.26661  0.363658481481
 C2 0.116744 0.738136 0.26655  0.363658481481
 C2 0.616679 0.238145 0.26631  0.363658481481
 C2 0.616748 0.73827 0.26638  0.363658481481
 C2 0.250429 0.342806 0.28928  0.363658481481
 C2 0.250511 0.842744 0.28942  0.363658481481
 C2 0.750401 0.34277 0.28933  0.363658481481
 C2 0.750514 0.842846 0.28935  0.363658481481
 C2 0.366003 0.306488 0.07338  0.363658481481
 C2 0.366067 0.806613 0.07341  0.363658481481
 C2 0.866262 0.306495 0.07336  0.363658481481
 C2 0.866325 0.806593 0.07335  0.363658481481
 C2 0.196037 0.368978 0.93406  0.363658481481
 C2 0.196086 0.869257 0.93404  0.363658481481
 C2 0.696075 0.369 0.93403  0.363658481481
 C2 0.696147 0.869261 0.93398  0.363658481481
 N1 0.035065 0.00936 0.10656  -0.336385185185
 N1 0.035031 0.509434 0.1066  -0.336385185185
 N1 0.535024 0.009342 0.10659  -0.336385185185
 N1 0.534997 0.509424 0.10668  -0.336385185185
 N2 0.177261 0.45787 0.27172  -0.376818518519
 N2 0.177343 0.957727 0.27165  -0.376818518519
 N2 0.677414 0.457925 0.27149  -0.376818518519
 N2 0.677444 0.957787 0.27141  -0.376818518519
 N2 0.452561 0.113588 0.27085  -0.376818518519
 N2 0.452599 0.613784 0.27097  -0.376818518519
 N2 0.952476 0.113595 0.27058  -0.376818518519
 N2 0.95238 0.613679 0.27078  -0.376818518519
 N1 0.427435 0.03628 0.04159  -0.336385185185
 N1 0.427447 0.536464 0.04155  -0.336385185185
 N1 0.927437 0.036202 0.04158  -0.336385185185
 N1 0.927444 0.536328 0.04153  -0.336385185185
 N1 0.030724 0.077393 0.96677  -0.336385185185
 N1 0.030853 0.577354 0.96668  -0.336385185185
 N1 0.530854 0.07736 0.96674  -0.336385185185
 N1 0.531 0.577314 0.96666  -0.336385185185
 N1 0.214914 0.490605 0.60662  -0.336385185185
 N1 0.214852 0.990628 0.60656  -0.336385185185
 N1 0.71513 0.490496 0.60662  -0.336385185185
 N1 0.715121 0.990639 0.6065  -0.336385185185
 N2 0.072664 0.042304 0.77165  -0.376818518519
 N2 0.07281 0.542225 0.77174  -0.376818518519
 N2 0.572691 0.042235 0.77144  -0.376818518519
 N2 0.572668 0.542072 0.7714  -0.376818518519
 N2 0.297574 0.386241 0.77088  -0.376818518519
 N2 0.297538 0.886445 0.77073  -0.376818518519
 N2 0.79756 0.386339 0.77089  -0.376818518519
 N2 0.797577 0.886441 0.77078  -0.376818518519
 N1 0.322489 0.463638 0.54160  -0.336385185185
 N1 0.322464 0.963695 0.54167  -0.336385185185
 N1 0.822735 0.463528 0.54155  -0.336385185185
 N1 0.82275 0.963763 0.54157  -0.336385185185
 N1 0.219085 0.422731 0.4666  -0.336385185185
 N1 0.219171 0.922613 0.46678  -0.336385185185
 N1 0.719255 0.422619 0.46662  -0.336385185185
 N1 0.719395 0.922652 0.46668  -0.336385185185
 N1 0.465065 0.259513 0.39279  -0.336385185185
 N1 0.46514 0.759751 0.39284  -0.336385185185
 N1 0.96515 0.259484 0.39281  -0.336385185185
 N1 0.965076 0.759789 0.39288  -0.336385185185
 N2 0.322913 0.207797 0.22795  -0.376818518519
 N2 0.322967 0.707946 0.22790  -0.376818518519
 N2 0.823014 0.207763 0.227  -0.376818518519
 N2 0.822954 0.707992 0.22781  -0.376818518519
 N2 0.047744 0.363477 0.22822  -0.376818518519
 N2 0.047848 0.863495 0.22815  -0.376818518519
 N2 0.547606 0.363551 0.2279  -0.376818518519
 N2 0.547787 0.863503 0.22778  -0.376818518519
 N1 0.072746 0.28614 0.4581  -0.336385185185
 N1 0.072644 0.786404 0.45815  -0.336385185185
 N1 0.572609 0.286265 0.45811  -0.336385185185
 N1 0.57268 0.786502 0.4581  -0.336385185185
 N1 0.469061 0.32715 0.53306  -0.336385185185
 N1 0.469157 0.827416 0.53306  -0.336385185185
 N1 0.969329 0.327195 0.53299  -0.336385185185
 N1 0.969299 0.827496 0.53302  -0.336385185185
 N1 0.284825 0.240178 0.89283  -0.336385185185
 N1 0.284836 0.740488 0.89280  -0.336385185185
 N1 0.785008 0.240309 0.89279  -0.336385185185
 N1 0.785043 0.740539 0.89276  -0.336385185185
 N2 0.427116 0.291894 0.727  -0.376818518519
 N2 0.427162 0.792079 0.72798  -0.376818518519
 N2 0.927113 0.292054 0.72774  -0.376818518519
 N2 0.92704 0.792242 0.72768  -0.376818518519
 N2 0.202217 0.136458 0.72797  -0.376818518519
 N2 0.202364 0.636525 0.72810  -0.376818518519
 N2 0.702271 0.136514 0.7278  -0.376818518519
 N2 0.702419 0.636365 0.72811  -0.376818518519
 N1 0.17724 0.213603 0.95819  -0.336385185185
 N1 0.177255 0.713845 0.95816  -0.336385185185
 N1 0.677478 0.21362 0.95815  -0.336385185185
 N1 0.677496 0.713885 0.95813  -0.336385185185
 N1 0.280684 0.172445 0.03302  -0.336385185185
 N1 0.280737 0.67275 0.03302  -0.336385185185
 N1 0.780912 0.172555 0.03295  -0.336385185185
 N1 0.780966 0.67282 0.03297  -0.336385185185
 N1 0.46504 0.490592 0.89286  -0.336385185185
 N1 0.465028 0.990649 0.89287  -0.336385185185
 N1 0.965099 0.490563 0.89286  -0.336385185185
 N1 0.965035 0.990624 0.89292  -0.336385185185
 N2 0.322606 0.042215 0.72803  -0.376818518519
 N2 0.322671 0.542104 0.72800  -0.376818518519
 N2 0.822701 0.042246 0.72787  -0.376818518519
 N2 0.822814 0.542111 0.7278  -0.376818518519
 N2 0.047683 0.38631 0.72880  -0.376818518519
 N2 0.047588 0.886413 0.72891  -0.376818518519
 N2 0.547453 0.386194 0.72861  -0.376818518519
 N2 0.547494 0.88642 0.72864  -0.376818518519
 N1 0.072676 0.463658 0.95800  -0.336385185185
 N1 0.072664 0.96379 0.95790  -0.336385185185
 N1 0.572583 0.46355 0.95799  -0.336385185185
 N1 0.572617 0.963696 0.9578  -0.336385185185
 N1 0.469036 0.422701 0.03288  -0.336385185185
 N1 0.469202 0.922616 0.03271  -0.336385185185
 N1 0.969262 0.422631 0.03284  -0.336385185185
 N1 0.969374 0.922591 0.03272  -0.336385185185
 N1 0.284953 0.009357 0.39295  -0.336385185185
 N1 0.284963 0.509497 0.39291  -0.336385185185
 N1 0.785202 0.009374 0.39289  -0.336385185185
 N1 0.785142 0.50939 0.3928  -0.336385185185
 N2 0.427384 0.457914 0.22800  -0.376818518519
 N2 0.427415 0.957778 0.22803  -0.376818518519
 N2 0.927275 0.457774 0.22780  -0.376818518519
 N2 0.927405 0.957694 0.22783  -0.376818518519
 N2 0.202492 0.113519 0.22873  -0.376818518519
 N2 0.20251 0.613665 0.22877  -0.376818518519
 N2 0.702541 0.113563 0.22868  -0.376818518519
 N2 0.70252 0.613767 0.22857  -0.376818518519
 N1 0.177318 0.036229 0.4578  -0.336385185185
 N1 0.177341 0.536452 0.45796  -0.336385185185
 N1 0.677606 0.03633 0.457  -0.336385185185
 N1 0.677578 0.536363 0.4579  -0.336385185185
 N1 0.280655 0.077364 0.53277  -0.336385185185
 N1 0.280797 0.577383 0.53290  -0.336385185185
 N1 0.780922 0.077391 0.53269  -0.336385185185
 N1 0.781014 0.577257 0.53287  -0.336385185185
 N1 0.035042 0.240239 0.6066  -0.336385185185
 N1 0.034952 0.740499 0.60669  -0.336385185185
 N1 0.534917 0.240238 0.60667  -0.336385185185
 N1 0.534976 0.740482 0.60672  -0.336385185185
 N2 0.177099 0.292036 0.7717  -0.376818518519
 N2 0.177044 0.79225 0.77173  -0.376818518519
 N2 0.677098 0.292061 0.77160  -0.376818518519
 N2 0.677208 0.792129 0.7714  -0.376818518519
 N2 0.4523 0.136469 0.77170  -0.376818518519
 N2 0.452448 0.63647 0.7716  -0.376818518519
 N2 0.952229 0.13649 0.77133  -0.376818518519
 N2 0.952321 0.636525 0.77129  -0.376818518519
 N1 0.427372 0.213493 0.54134  -0.336385185185
 N1 0.427437 0.713733 0.54139  -0.336385185185
 N1 0.927467 0.213606 0.54137  -0.336385185185
 N1 0.927367 0.713854 0.54139  -0.336385185185
 N1 0.030814 0.172519 0.46649  -0.336385185185
 N1 0.030767 0.672809 0.46651  -0.336385185185
 N1 0.530897 0.172582 0.46642  -0.336385185185
 N1 0.53099 0.672838 0.46647  -0.336385185185
 N1 0.215022 0.259442 0.10673  -0.336385185185
 N1 0.215025 0.759697 0.10669  -0.336385185185
 N1 0.715249 0.259524 0.10672  -0.336385185185
 N1 0.71526 0.759794 0.10668  -0.336385185185
 N2 0.073039 0.207751 0.27183  -0.376818518519
 N2 0.072957 0.707941 0.27179  -0.376818518519
 N2 0.572897 0.207935 0.27146  -0.376818518519
 N2 0.572962 0.708073 0.27162  -0.376818518519
 N2 0.29768 0.363598 0.27134  -0.376818518519
 N2 0.297797 0.863495 0.27157  -0.376818518519
 N2 0.797702 0.363474 0.27145  -0.376818518519
 N2 0.797803 0.863583 0.27148  -0.376818518519
 N1 0.322574 0.286088 0.04139  -0.336385185185
 N1 0.322571 0.786379 0.04140  -0.336385185185
 N1 0.822814 0.286174 0.04132  -0.336385185185
 N1 0.822828 0.786396 0.04130  -0.336385185185
 N1 0.21914 0.327173 0.96654  -0.336385185185
 N1 0.219177 0.827463 0.96655  -0.336385185185
 N1 0.719296 0.327253 0.96649  -0.336385185185
 N1 0.71936 0.827522 0.96646  -0.336385185185
