#======================================================================

# CRYSTAL DATA

#----------------------------------------------------------------------

data_VESTA_phase_1


_pd_phase_name                         MOF
_cell_length_a                         15.23000
_cell_length_b                         17.84800
_cell_length_c                         17.84800
_cell_angle_alpha                      90.00000
_cell_angle_beta                       90.00000
_cell_angle_gamma                      89.99900
_symmetry_space_group_name_H-M         "P 1"
_symmetry_Int_Tables_number            1

loop_
_symmetry_equiv_pos_as_xyz
   "x, y, z"

loop_
   _atom_site_label
   _atom_site_fract_x
   _atom_site_fract_y
   _atom_site_fract_z
 _atom_site_charge
 Zn1 0.871606 0.750005 0.75000  0.779599
 Zn1 0.371598 0.750006 0.75000  0.779599
 Zn1 0.628411 0.250001 0.25000  0.779599
 Zn1 0.128405 0.250002 0.25000  0.779599
 Si1 0.622149 0.750004 0.75000  1.828349
 Si1 0.122142 0.750005 0.75000  1.828349
 Si1 0.877868 0.250002 0.25000  1.828349
 Si1 0.377861 0.25 0.25000  1.828349
 H1 0.755717 0.818256 0.87222  0.111717571429
 H1 0.755678 0.834222 0.01161  0.111717571429
 H1 0.993034 0.702273 0.01881  0.111717571429
 H1 0.989056 0.697995 0.87853  0.111717571429
 H1 0.879549 0.655146 0.1261  0.111717571429
 H1 0.873069 0.906011 0.24931  0.111717571429
 H1 0.869534 0.895848 0.11067  0.111717571429
 H1 0.75572 0.68175 0.62778  0.111717571429
 H1 0.755683 0.665786 0.48838  0.111717571429
 H1 0.993035 0.797732 0.48118  0.111717571429
 H1 0.989054 0.80201 0.62147  0.111717571429
 H1 0.87953 0.844863 0.37383  0.111717571429
 H1 0.873086 0.593998 0.25068  0.111717571429
 H1 0.86954 0.604161 0.38932  0.111717571429
 H1 0.75572 0.627782 0.81825  0.111717571429
 H1 0.755685 0.488384 0.83422  0.111717571429
 H1 0.993039 0.481183 0.70227  0.111717571429
 H1 0.989057 0.621472 0.69799  0.111717571429
 H1 0.879536 0.373832 0.65514  0.111717571429
 H1 0.873089 0.250686 0.90601  0.111717571429
 H1 0.869543 0.38933 0.89584  0.111717571429
 H1 0.755717 0.872229 0.68175  0.111717571429
 H1 0.755686 0.01162 0.66578  0.111717571429
 H1 0.99304 0.018816 0.79773  0.111717571429
 H1 0.989053 0.878534 0.80201  0.111717571429
 H1 0.879553 0.12617 0.84486  0.111717571429
 H1 0.873076 0.249315 0.59399  0.111717571429
 H1 0.869541 0.110672 0.60416  0.111717571429
 H1 0.25571 0.818259 0.62778  0.111717571429
 H1 0.255672 0.834223 0.48838  0.111717571429
 H1 0.493028 0.702274 0.48118  0.111717571429
 H1 0.489047 0.697996 0.62147  0.111717571429
 H1 0.379531 0.655146 0.37383  0.111717571429
 H1 0.373071 0.906012 0.25068  0.111717571429
 H1 0.36953 0.895848 0.38933  0.111717571429
 H1 0.255713 0.681752 0.87222  0.111717571429
 H1 0.255675 0.665787 0.0116  0.111717571429
 H1 0.493027 0.797733 0.01881  0.111717571429
 H1 0.489048 0.802011 0.87853  0.111717571429
 H1 0.379534 0.844863 0.12617  0.111717571429
 H1 0.37307 0.593998 0.24931  0.111717571429
 H1 0.36953 0.604161 0.11067  0.111717571429
 H1 0.255711 0.627783 0.68175  0.111717571429
 H1 0.255675 0.488385 0.66578  0.111717571429
 H1 0.493029 0.481185 0.79773  0.111717571429
 H1 0.489047 0.621474 0.80201  0.111717571429
 H1 0.379533 0.373832 0.84486  0.111717571429
 H1 0.373077 0.250689 0.59399  0.111717571429
 H1 0.369534 0.389332 0.60416  0.111717571429
 H1 0.255712 0.87223 0.8182  0.111717571429
 H1 0.255682 0.011622 0.83422  0.111717571429
 H1 0.493035 0.018818 0.70227  0.111717571429
 H1 0.489048 0.878536 0.69  0.111717571429
 H1 0.379541 0.126171 0.65514  0.111717571429
 H1 0.373074 0.249318 0.90601  0.111717571429
 H1 0.369535 0.110674 0.8958  0.111717571429
 H1 0.7443 0.181748 0.37222  0.111717571429
 H1 0.744338 0.165784 0.51162  0.111717571429
 H1 0.506982 0.297733 0.51882  0.111717571429
 H1 0.510962 0.30201 0.37853  0.111717571429
 H1 0.620478 0.34486 0.62617  0.111717571429
 H1 0.626941 0.093995 0.74931  0.111717571429
 H1 0.630481 0.104159 0.61067  0.111717571429
 H1 0.744297 0.318254 0.12777  0.111717571429
 H1 0.744335 0.334219 0.98838  0.111717571429
 H1 0.506983 0.202273 0.98118  0.111717571429
 H1 0.510962 0.197994 0.1214  0.111717571429
 H1 0.620478 0.155143 0.87383  0.111717571429
 H1 0.626939 0.406008 0.7506  0.111717571429
 H1 0.630479 0.395846 0.88933  0.111717571429
 H1 0.744299 0.372223 0.31825  0.111717571429
 H1 0.744333 0.511621 0.33421  0.111717571429
 H1 0.506978 0.518821 0.20227  0.111717571429
 H1 0.510961 0.378532 0.19799  0.111717571429
 H1 0.620467 0.626173 0.15514  0.111717571429
 H1 0.626939 0.749318 0.40600  0.111717571429
 H1 0.630477 0.610675 0.39584  0.111717571429
 H1 0.744299 0.127776 0.18174  0.111717571429
 H1 0.74433 0.988385 0.16578  0.111717571429
 H1 0.506976 0.981188 0.29773  0.111717571429
 H1 0.510963 0.12147 0.30200  0.111717571429
 H1 0.620479 0.873835 0.3448  0.111717571429
 H1 0.62693 0.750689 0.09399  0.111717571429
 H1 0.630474 0.889333 0.10415  0.111717571429
 H1 0.244292 0.181748 0.12777  0.111717571429
 H1 0.244331 0.165783 0.98838  0.111717571429
 H1 0.006975 0.297731 0.98118  0.111717571429
 H1 0.010953 0.302008 0.1214  0.111717571429
 H1 0.120468 0.34486 0.87383  0.111717571429
 H1 0.126935 0.093995 0.7506  0.111717571429
 H1 0.130475 0.104158 0.88933  0.111717571429
 H1 0.244291 0.318253 0.37222  0.111717571429
 H1 0.244328 0.334218 0.51162  0.111717571429
 H1 0.006976 0.202271 0.51882  0.111717571429
 H1 0.010957 0.197993 0.37853  0.111717571429
 H1 0.120473 0.155143 0.62617  0.111717571429
 H1 0.12693 0.406008 0.74931  0.111717571429
 H1 0.130472 0.395844 0.61067  0.111717571429
 H1 0.24429 0.372223 0.18174  0.111717571429
 H1 0.244325 0.511622 0.16578  0.111717571429
 H1 0.006972 0.518821 0.29773  0.111717571429
 H1 0.010954 0.378532 0.30200  0.111717571429
 H1 0.120464 0.626173 0.3448  0.111717571429
 H1 0.126929 0.749318 0.09399  0.111717571429
 H1 0.130469 0.610675 0.10415  0.111717571429
 H1 0.244293 0.127777 0.31825  0.111717571429
 H1 0.244324 0.988385 0.33421  0.111717571429
 H1 0.006969 0.981188 0.20227  0.111717571429
 H1 0.010956 0.12147 0.19799  0.111717571429
 H1 0.120467 0.873834 0.15514  0.111717571429
 H1 0.126927 0.75069 0.40600  0.111717571429
 H1 0.130468 0.889333 0.39584  0.111717571429
 C1 0.808475 0.79541 0.90680  0.174289
 C2 0.808442 0.803341 0.98429  -0.169287
 C3 0.874561 0.769037 0.02695  0.0704456666667
 C2 0.939621 0.729044 0.98829  -0.169287
 C1 0.937343 0.725746 0.91051  0.174289
 C3 0.875417 0.774338 0.10961  0.0704456666667
 C2 0.878478 0.710067 0.15305  -0.169287
 C3 0.877155 0.713958 0.2322  0.0704456666667
 C2 0.874232 0.8512 0.22221  -0.169287
 C2 0.872008 0.845536 0.14534  -0.169287
 C1 0.808469 0.704607 0.59319  0.174289
 C2 0.808447 0.696662 0.51571  -0.169287
 C3 0.874561 0.730973 0.47304  0.0704456666667
 C2 0.939624 0.770957 0.5117  -0.169287
 C1 0.937335 0.77427 0.58949  0.174289
 C3 0.875394 0.725673 0.39038  0.0704456666667
 C2 0.878498 0.789943 0.34694  -0.169287
 C3 0.877099 0.786049 0.26778  0.0704456666667
 C2 0.874216 0.64881 0.27778  -0.169287
 C2 0.872031 0.654473 0.35465  -0.169287
 C1 0.808471 0.593201 0.79540  0.174289
 C2 0.808449 0.515718 0.80334  -0.169287
 C3 0.874564 0.473047 0.76903  0.0704456666667
 C2 0.939626 0.51171 0.72905  -0.169287
 C1 0.937338 0.589494 0.72573  0.174289
 C3 0.8754 0.390381 0.77433  0.0704456666667
 C2 0.878502 0.346949 0.71006  -0.169287
 C3 0.877108 0.267781 0.7139  0.0704456666667
 C2 0.874221 0.277784 0.851  -0.169287
 C2 0.872034 0.354659 0.84553  -0.169287
 C1 0.808475 0.906808 0.70459  0.174289
 C2 0.808439 0.984292 0.69666  -0.169287
 C3 0.874568 0.026955 0.73097  0.0704456666667
 C2 0.939617 0.988298 0.77096  -0.169287
 C1 0.937342 0.910514 0.77426  0.174289
 C3 0.875421 0.10962 0.72567  0.0704456666667
 C2 0.878484 0.153052 0.78994  -0.169287
 C3 0.877156 0.232221 0.78605  0.0704456666667
 C2 0.874236 0.222218 0.6488  -0.169287
 C2 0.872016 0.145344 0.65447  -0.169287
 C1 0.308466 0.795411 0.59320  0.174289
 C2 0.308434 0.803342 0.51571  -0.169287
 C3 0.374555 0.769038 0.47304  0.0704456666667
 C2 0.439613 0.729045 0.51171  -0.169287
 C1 0.437335 0.725746 0.58949  0.174289
 C3 0.375396 0.774338 0.39038  0.0704456666667
 C2 0.378483 0.710067 0.34695  -0.169287
 C3 0.377116 0.713958 0.26778  0.0704456666667
 C2 0.374216 0.851199 0.27778  -0.169287
 C2 0.372014 0.845537 0.35465  -0.169287
 C1 0.308463 0.704609 0.90680  0.174289
 C2 0.308442 0.696662 0.98429  -0.169287
 C3 0.374552 0.730974 0.02695  0.0704456666667
 C2 0.439619 0.770957 0.98829  -0.169287
 C1 0.437329 0.774271 0.91051  0.174289
 C3 0.375401 0.725673 0.10962  0.0704456666667
 C2 0.378479 0.789943 0.15305  -0.169287
 C3 0.377124 0.786049 0.23222  0.0704456666667
 C2 0.374217 0.64881 0.22221  -0.169287
 C2 0.372011 0.654473 0.14534  -0.169287
 C1 0.308473 0.593204 0.70459  0.174289
 C2 0.308433 0.515718 0.69667  -0.169287
 C3 0.37456 0.47305 0.73097  0.0704456666667
 C2 0.439611 0.511711 0.77097  -0.169287
 C1 0.43734 0.589497 0.77425  0.174289
 C3 0.375399 0.390384 0.72567  0.0704456666667
 C2 0.378487 0.346952 0.78994  -0.169287
 C3 0.37712 0.267784 0.78605  0.0704456666667
 C2 0.374222 0.277784 0.64881  -0.169287
 C2 0.37202 0.354659 0.65447  -0.169287
 C1 0.308459 0.906811 0.795  0.174289
 C2 0.308441 0.984292 0.80335  -0.169287
 C3 0.374557 0.026958 0.76903  0.0704456666667
 C2 0.439618 0.9883 0.72905  -0.169287
 C1 0.437327 0.910516 0.72573  0.174289
 C3 0.375408 0.109623 0.77433  0.0704456666667
 C2 0.378484 0.153056 0.71006  -0.169287
 C3 0.37713 0.232224 0.71396  0.0704456666667
 C2 0.374222 0.222218 0.85120  -0.169287
 C2 0.372015 0.145343 0.84553  -0.169287
 C1 0.691544 0.204596 0.40680  0.174289
 C2 0.691577 0.196665 0.48428  -0.169287
 C3 0.625455 0.230969 0.52695  0.0704456666667
 C2 0.560398 0.270962 0.48829  -0.169287
 C1 0.562675 0.27426 0.4105  0.174289
 C3 0.624613 0.225669 0.60962  0.0704456666667
 C2 0.621528 0.289939 0.65305  -0.169287
 C3 0.622891 0.286048 0.73222  0.0704456666667
 C2 0.625794 0.148807 0.72222  -0.169287
 C2 0.627997 0.15447 0.64534  -0.169287
 C1 0.691546 0.2954 0.09319  0.174289
 C2 0.691569 0.303343 0.01571  -0.169287
 C3 0.625458 0.269033 0.9730  0.0704456666667
 C2 0.560392 0.229048 0.01170  -0.169287
 C1 0.562679 0.225737 0.08949  0.174289
 C3 0.62461 0.274334 0.89038  0.0704456666667
 C2 0.62153 0.210063 0.84695  -0.169287
 C3 0.622889 0.213957 0.76778  0.0704456666667
 C2 0.625793 0.351197 0.77778  -0.169287
 C2 0.627998 0.345534 0.85466  -0.169287
 C1 0.691543 0.406803 0.29540  0.174289
 C2 0.691571 0.484287 0.3033  -0.169287
 C3 0.625453 0.526958 0.26903  0.0704456666667
 C2 0.560393 0.488295 0.22904  -0.169287
 C1 0.562675 0.410511 0.2257  0.174289
 C3 0.624599 0.609623 0.27433  0.0704456666667
 C2 0.621531 0.653055 0.21006  -0.169287
 C3 0.622867 0.732224 0.21395  0.0704456666667
 C2 0.625783 0.72222 0.35119  -0.169287
 C2 0.628 0.645346 0.34553  -0.169287
 C1 0.691546 0.093196 0.20459  0.174289
 C2 0.691575 0.015713 0.19666  -0.169287
 C3 0.62545 0.97305 0.23096  0.0704456666667
 C2 0.560397 0.011707 0.27095  -0.169287
 C1 0.562679 0.089491 0.27426  0.174289
 C3 0.624614 0.890385 0.22566  0.0704456666667
 C2 0.621517 0.846952 0.28993  -0.169287
 C3 0.622903 0.767784 0.28604  0.0704456666667
 C2 0.625794 0.777786 0.14880  -0.169287
 C2 0.627985 0.854661 0.15446  -0.169287
 C1 0.191539 0.204601 0.09319  0.174289
 C2 0.191564 0.19666 0.01571  -0.169287
 C3 0.125451 0.23097 0.9730  0.0704456666667
 C2 0.060385 0.270956 0.01170  -0.169287
 C1 0.062671 0.274265 0.08949  0.174289
 C3 0.124602 0.225669 0.89038  0.0704456666667
 C2 0.121525 0.28994 0.84695  -0.169287
 C3 0.122876 0.286046 0.76778  0.0704456666667
 C2 0.125785 0.148806 0.77778  -0.169287
 C2 0.127994 0.15447 0.85466  -0.169287
 C1 0.191536 0.295405 0.40680  0.174289
 C2 0.191567 0.303339 0.48428  -0.169287
 C3 0.125448 0.269034 0.52695  0.0704456666667
 C2 0.06039 0.229043 0.48829  -0.169287
 C1 0.06267 0.225741 0.41051  0.174289
 C3 0.124607 0.274334 0.60962  0.0704456666667
 C2 0.121519 0.210064 0.65305  -0.169287
 C3 0.122889 0.213955 0.73222  0.0704456666667
 C2 0.125787 0.351196 0.72222  -0.169287
 C2 0.127987 0.345533 0.64534  -0.169287
 C1 0.191538 0.406804 0.20460  0.174289
 C2 0.191562 0.484287 0.19665  -0.169287
 C3 0.125447 0.526958 0.2309  0.0704456666667
 C2 0.060385 0.488295 0.27095  -0.169287
 C1 0.062671 0.410511 0.27426  0.174289
 C3 0.124597 0.609624 0.22566  0.0704456666667
 C2 0.12152 0.653056 0.2899  -0.169287
 C3 0.122872 0.732224 0.28604  0.0704456666667
 C2 0.12578 0.72222 0.14880  -0.169287
 C2 0.127988 0.645346 0.1544  -0.169287
 C1 0.191537 0.093197 0.29540  0.174289
 C2 0.191569 0.015713 0.30333  -0.169287
 C3 0.125442 0.973051 0.26903  0.0704456666667
 C2 0.060391 0.011707 0.22904  -0.169287
 C1 0.06267 0.089492 0.22574  0.174289
 C3 0.124602 0.890385 0.27433  0.0704456666667
 C2 0.121514 0.846953 0.21006  -0.169287
 C3 0.122884 0.767785 0.21395  0.0704456666667
 C2 0.125783 0.777787 0.35119  -0.169287
 C2 0.127983 0.854661 0.34553  -0.169287
 N1 0.872392 0.757808 0.87035  -0.311151
 N1 0.872395 0.742194 0.62965  -0.311151
 N1 0.872396 0.629658 0.75781  -0.311151
 N1 0.87239 0.870352 0.74220  -0.311151
 N1 0.372383 0.75781 0.62965  -0.311151
 N1 0.372389 0.742195 0.87035  -0.311151
 N1 0.372381 0.629659 0.74220  -0.311151
 N1 0.37239 0.870353 0.75781  -0.311151
 N1 0.627627 0.242197 0.37034  -0.311151
 N1 0.627622 0.25781 0.12965  -0.311151
 N1 0.627623 0.370348 0.25780  -0.311151
 N1 0.627625 0.129653 0.24219  -0.311151
 N1 0.127615 0.242193 0.12965  -0.311151
 N1 0.127619 0.257805 0.37034  -0.311151
 N1 0.127614 0.370348 0.24219  -0.311151
 N1 0.127619 0.129654 0.25780  -0.311151
 F1 0.622226 0.699801 0.83116  -0.586241
 F1 0.622228 0.800209 0.66884  -0.586241
 F1 0.622226 0.668843 0.69980  -0.586241
 F1 0.622228 0.831167 0.80020  -0.586241
 F1 0.122221 0.699801 0.66884  -0.586241
 F1 0.122219 0.800209 0.83116  -0.586241
 F1 0.122222 0.668843 0.80020  -0.586241
 F1 0.122218 0.831166 0.69980  -0.586241
 F2 0.736821 0.750007 0.75000  -0.500196
 F2 0.507489 0.750004 0.75000  -0.500196
 F2 0.236814 0.750003 0.75000  -0.500196
 F2 0.007482 0.750006 0.75000  -0.500196
 F1 0.87778 0.300205 0.33116  -0.586241
 F1 0.8778 0.199798 0.1688  -0.586241
 F1 0.877786 0.331164 0.19979  -0.586241
 F1 0.877795 0.16884 0.30020  -0.586241
 F1 0.377771 0.300206 0.16884  -0.586241
 F1 0.377795 0.199798 0.33116  -0.586241
 F1 0.377766 0.331163 0.30020  -0.586241
 F1 0.3778 0.168839 0.19979  -0.586241
 F2 0.763196 0.250009 0.25000  -0.500196
 F2 0.992528 0.249993 0.24999  -0.500196
 F2 0.263189 0.250022 0.25000  -0.500196
 F2 0.492521 0.249984 0.25000  -0.500196
