#======================================================================

# CRYSTAL DATA

#----------------------------------------------------------------------

data_VESTA_phase_1


_pd_phase_name                         MOF
_cell_length_a                         19.00600
_cell_length_b                         18.83300
_cell_length_c                         18.82200
_cell_angle_alpha                      89.99500
_cell_angle_beta                       90.00100
_cell_angle_gamma                      89.99800
_symmetry_space_group_name_H-M         "P 1"
_symmetry_Int_Tables_number            1

loop_
_symmetry_equiv_pos_as_xyz
   "x, y, z"

loop_
   _atom_site_label
   _atom_site_fract_x
   _atom_site_fract_y
   _atom_site_fract_z
 _atom_site_charge
 Al1 0.458048 0.935667 0.33463  2.01015944444
 Al1 0.958056 0.935667 0.33463  2.01015944444
 Al1 0.421702 0.835013 0.54457  2.01015944444
 Al1 0.92171 0.835013 0.54457  2.01015944444
 Al1 0.332837 0.051068 0.56610  2.01015944444
 Al1 0.832845 0.051068 0.56610  2.01015944444
 Al1 0.458056 0.564397 0.16533  2.01015944444
 Al1 0.958064 0.564396 0.16533  2.01015944444
 Al1 0.421722 0.665012 0.95539  2.01015944444
 Al1 0.92173 0.665012 0.95539  2.01015944444
 Al1 0.332827 0.448939 0.9338  2.01015944444
 Al1 0.832835 0.44894 0.9338  2.01015944444
 Al1 0.4582 0.165499 0.9342  2.01015944444
 Al1 0.958208 0.165499 0.9342  2.01015944444
 Al1 0.421792 0.955279 0.83528  2.01015944444
 Al1 0.9218 0.955279 0.83528  2.01015944444
 Al1 0.332652 0.933983 0.05093  2.01015944444
 Al1 0.83266 0.933983 0.05093  2.01015944444
 Al1 0.458201 0.33449 0.56574  2.01015944444
 Al1 0.958209 0.33449 0.56574  2.01015944444
 Al1 0.421801 0.544747 0.66468  2.01015944444
 Al1 0.921809 0.544747 0.66468  2.01015944444
 Al1 0.332657 0.566029 0.44902  2.01015944444
 Al1 0.832665 0.566029 0.44902  2.01015944444
 Al1 0.041963 0.064341 0.66535  2.01015944444
 Al1 0.54197 0.064341 0.66535  2.01015944444
 Al1 0.078308 0.164995 0.45542  2.01015944444
 Al1 0.578316 0.164995 0.45542  2.01015944444
 Al1 0.167174 0.94894 0.43389  2.01015944444
 Al1 0.667182 0.94894 0.43389  2.01015944444
 Al1 0.041954 0.435613 0.83466  2.01015944444
 Al1 0.541962 0.435612 0.83466  2.01015944444
 Al1 0.078288 0.334997 0.04460  2.01015944444
 Al1 0.578296 0.334997 0.04460  2.01015944444
 Al1 0.167184 0.551069 0.06610  2.01015944444
 Al1 0.667191 0.551069 0.06610  2.01015944444
 Al1 0.04181 0.834509 0.06573  2.01015944444
 Al1 0.541818 0.834509 0.06573  2.01015944444
 Al1 0.078219 0.04473 0.16470  2.01015944444
 Al1 0.578227 0.04473 0.16470  2.01015944444
 Al1 0.167359 0.066026 0.94905  2.01015944444
 Al1 0.667367 0.066026 0.94905  2.01015944444
 Al1 0.041809 0.665518 0.43425  2.01015944444
 Al1 0.541817 0.665518 0.43425  2.01015944444
 Al1 0.078209 0.455261 0.33530  2.01015944444
 Al1 0.578217 0.455261 0.33530  2.01015944444
 Al1 0.167353 0.433979 0.55096  2.01015944444
 Al1 0.667361 0.433979 0.55096  2.01015944444
 P1 0.3329 0.933096 0.44489  2.15436277778
 P1 0.832908 0.933096 0.444  2.15436277778
 P1 0.421365 0.951431 0.66497  2.15436277778
 P1 0.921373 0.951431 0.66497  2.15436277778
 P1 0.454292 0.164791 0.56664  2.15436277778
 P1 0.9543 0.164791 0.56664  2.15436277778
 P1 0.332917 0.566961 0.05509  2.15436277778
 P1 0.832925 0.566961 0.05509  2.15436277778
 P1 0.421348 0.548551 0.83501  2.15436277778
 P1 0.921356 0.548551 0.83501  2.15436277778
 P1 0.454279 0.335186 0.93340  2.15436277778
 P1 0.954287 0.335186 0.93340  2.15436277778
 P1 0.333017 0.055143 0.93292  2.15436277778
 P1 0.833025 0.055143 0.93292  2.15436277778
 P1 0.421323 0.834956 0.95185  2.15436277778
 P1 0.921331 0.834956 0.95185  2.15436277778
 P1 0.454326 0.934225 0.16463  2.15436277778
 P1 0.954334 0.934225 0.16463  2.15436277778
 P1 0.333019 0.444872 0.56701  2.15436277778
 P1 0.833027 0.444872 0.56701  2.15436277778
 P1 0.421327 0.665059 0.54812  2.15436277778
 P1 0.921335 0.665059 0.54812  2.15436277778
 P1 0.454329 0.565813 0.33533  2.15436277778
 P1 0.954337 0.565813 0.33533  2.15436277778
 P1 0.16711 0.066912 0.55509  2.15436277778
 P1 0.667118 0.066912 0.55509  2.15436277778
 P1 0.078645 0.048578 0.33502  2.15436277778
 P1 0.578653 0.048578 0.33502  2.15436277778
 P1 0.045718 0.835218 0.43334  2.15436277778
 P1 0.545726 0.835218 0.43334  2.15436277778
 P1 0.167094 0.433048 0.94490  2.15436277778
 P1 0.667102 0.433048 0.94490  2.15436277778
 P1 0.078662 0.451458 0.16497  2.15436277778
 P1 0.57867 0.451458 0.16497  2.15436277778
 P1 0.045731 0.664823 0.06659  2.15436277778
 P1 0.545739 0.664823 0.06659  2.15436277778
 P1 0.166993 0.944866 0.06707  2.15436277778
 P1 0.667001 0.944866 0.06707  2.15436277778
 P1 0.078687 0.165052 0.04814  2.15436277778
 P1 0.578695 0.165052 0.04814  2.15436277778
 P1 0.045685 0.065783 0.8353  2.15436277778
 P1 0.545693 0.065783 0.8353  2.15436277778
 P1 0.166991 0.555136 0.4329  2.15436277778
 P1 0.666999 0.555136 0.4329  2.15436277778
 P1 0.078684 0.334949 0.45186  2.15436277778
 P1 0.578692 0.334949 0.45186  2.15436277778
 P1 0.045681 0.434195 0.66465  2.15436277778
 P1 0.545689 0.434195 0.66465  2.15436277778
 O1 0.376412 0.938501 0.376  -1.04113055556
 O1 0.87642 0.938501 0.37650  -1.04113055556
 O1 0.255415 0.925583 0.42334  -1.04113055556
 O1 0.755423 0.925583 0.42334  -1.04113055556
 O1 0.354323 0.867115 0.48863  -1.04113055556
 O1 0.854331 0.867115 0.48863  -1.04113055556
 O1 0.345113 0.001458 0.48824  -1.04113055556
 O1 0.845121 0.001458 0.48824  -1.04113055556
 O1 0.493708 0.98604 0.65040  -1.04113055556
 O1 0.993716 0.98604 0.65040  -1.04113055556
 O1 0.361253 0.0 0.63902  -1.04113055556
 O1 0.861261 0.0 0.63902  -1.04113055556
 O1 0.419478 0.879499 0.62638  -1.04113055556
 O1 0.919486 0.879499 0.62638  -1.04113055556
 O1 0.410594 0.938242 0.74469  -1.04113055556
 O1 0.910602 0.938242 0.74469  -1.04113055556
 O1 0.497265 0.15037 0.49844  -1.04113055556
 O1 0.997273 0.15037 0.49844  -1.04113055556
 O1 0.493416 0.136479 0.63263  -1.04113055556
 O1 0.993424 0.136479 0.63263  -1.04113055556
 O1 0.382152 0.129022 0.55883  -1.04113055556
 O1 0.88216 0.129023 0.55883  -1.04113055556
 O1 0.441988 0.24439 0.57731  -1.04113055556
 O1 0.941995 0.24439 0.57731  -1.04113055556
 O1 0.376399 0.561506 0.1235  -1.04113055556
 O1 0.876407 0.561505 0.1235  -1.04113055556
 O1 0.255421 0.574461 0.07661  -1.04113055556
 O1 0.755429 0.574461 0.07661  -1.04113055556
 O1 0.354383 0.632963 0.01141  -1.04113055556
 O1 0.854391 0.632963 0.01141  -1.04113055556
 O1 0.345138 0.498623 0.01169  -1.04113055556
 O1 0.845146 0.498623 0.01169  -1.04113055556
 O1 0.493667 0.513898 0.84961  -1.04113055556
 O1 0.993675 0.513899 0.84961  -1.04113055556
 O1 0.361218 0.499823 0.86094  -1.04113055556
 O1 0.861226 0.499823 0.86094  -1.04113055556
 O1 0.419473 0.620486 0.87360  -1.04113055556
 O1 0.919481 0.620486 0.87360  -1.04113055556
 O1 0.410601 0.561752 0.75529  -1.04113055556
 O1 0.910609 0.561753 0.75529  -1.04113055556
 O1 0.497197 0.349574 0.00165  -1.04113055556
 O1 0.997205 0.349574 0.00165  -1.04113055556
 O1 0.49345 0.363478 0.86743  -1.04113055556
 O1 0.993458 0.363478 0.86743  -1.04113055556
 O1 0.38215 0.370989 0.94116  -1.04113055556
 O1 0.882158 0.370989 0.9411  -1.04113055556
 O1 0.441953 0.255596 0.92270  -1.04113055556
 O1 0.941961 0.255596 0.92270  -1.04113055556
 O1 0.376605 0.123477 0.93832  -1.04113055556
 O1 0.876613 0.123477 0.93832  -1.04113055556
 O1 0.255522 0.076711 0.92549  -1.04113055556
 O1 0.75553 0.076711 0.92549  -1.04113055556
 O1 0.354311 0.01136 0.86690  -1.04113055556
 O1 0.854319 0.01136 0.86690  -1.04113055556
 O1 0.345132 0.011749 0.00130  -1.04113055556
 O1 0.84514 0.011749 0.00130  -1.04113055556
 O1 0.493401 0.849017 0.98732  -1.04113055556
 O1 0.993409 0.849017 0.98732  -1.04113055556
 O1 0.360983 0.860966 0.  -1.04113055556
 O1 0.860991 0.860966 0.  -1.04113055556
 O1 0.419784 0.8736 0.87990  -1.04113055556
 O1 0.919792 0.8736 0.87990  -1.04113055556
 O1 0.41033 0.755422 0.93819  -1.04113055556
 O1 0.910338 0.755422 0.93819  -1.04113055556
 O1 0.497241 0.002085 0.14845  -1.04113055556
 O1 0.997249 0.002085 0.14845  -1.04113055556
 O1 0.493656 0.867571 0.13819  -1.04113055556
 O1 0.993664 0.867571 0.13819  -1.04113055556
 O1 0.382195 0.94111 0.12872  -1.04113055556
 O1 0.882203 0.94111 0.12872  -1.04113055556
 O1 0.441882 0.925579 0.2444  -1.04113055556
 O1 0.94189 0.925579 0.2444  -1.04113055556
 O1 0.376613 0.376532 0.56167  -1.04113055556
 O1 0.876621 0.376532 0.56167  -1.04113055556
 O1 0.255532 0.423291 0.57447  -1.04113055556
 O1 0.75554 0.423291 0.57447  -1.04113055556
 O1 0.3543 0.48873 0.6329  -1.04113055556
 O1 0.854308 0.48873 0.6329  -1.04113055556
 O1 0.345125 0.488191 0.4985  -1.04113055556
 O1 0.845133 0.488191 0.4985  -1.04113055556
 O1 0.493406 0.650997 0.51266  -1.04113055556
 O1 0.993414 0.650997 0.51266  -1.04113055556
 O1 0.360988 0.639022 0.49975  -1.04113055556
 O1 0.860996 0.639022 0.49975  -1.04113055556
 O1 0.419798 0.626436 0.62008  -1.04113055556
 O1 0.919806 0.626436 0.62008  -1.04113055556
 O1 0.410327 0.744598 0.5617  -1.04113055556
 O1 0.910335 0.744598 0.5617  -1.04113055556
 O1 0.497243 0.497942 0.35153  -1.04113055556
 O1 0.997251 0.497942 0.35153  -1.04113055556
 O1 0.49365 0.632463 0.36179  -1.04113055556
 O1 0.993658 0.632463 0.36179  -1.04113055556
 O1 0.382185 0.558926 0.37122  -1.04113055556
 O1 0.882193 0.558926 0.37122  -1.04113055556
 O1 0.441911 0.574465 0.25553  -1.04113055556
 O1 0.941919 0.574465 0.25553  -1.04113055556
 O1 0.123599 0.061507 0.62349  -1.04113055556
 O1 0.623607 0.061507 0.62349  -1.04113055556
 O1 0.244595 0.074425 0.57665  -1.04113055556
 O1 0.744603 0.074425 0.57665  -1.04113055556
 O1 0.145687 0.132893 0.5113  -1.04113055556
 O1 0.645695 0.132894 0.51136  -1.04113055556
 O1 0.154898 0.99855 0.51174  -1.04113055556
 O1 0.654905 0.998551 0.51174  -1.04113055556
 O1 0.006302 0.013969 0.34958  -1.04113055556
 O1 0.50631 0.013969 0.34958  -1.04113055556
 O1 0.138757 0.999827 0.36096  -1.04113055556
 O1 0.638765 0.999827 0.36096  -1.04113055556
 O1 0.080532 0.120509 0.37360  -1.04113055556
 O1 0.58054 0.120509 0.37360  -1.04113055556
 O1 0.089416 0.061767 0.25530  -1.04113055556
 O1 0.589424 0.061767 0.25530  -1.04113055556
 O1 0.002745 0.849639 0.50155  -1.04113055556
 O1 0.502753 0.849639 0.50155  -1.04113055556
 O1 0.006595 0.86353 0.36736  -1.04113055556
 O1 0.506603 0.86353 0.36736  -1.04113055556
 O1 0.117858 0.870986 0.4411  -1.04113055556
 O1 0.617866 0.870986 0.4411  -1.04113055556
 O1 0.058023 0.755618 0.42268  -1.04113055556
 O1 0.558031 0.755619 0.42268  -1.04113055556
 O1 0.123611 0.438503 0.87648  -1.04113055556
 O1 0.623619 0.438503 0.87648  -1.04113055556
 O1 0.24459 0.425547 0.92338  -1.04113055556
 O1 0.744598 0.425547 0.92338  -1.04113055556
 O1 0.145627 0.367046 0.98857  -1.04113055556
 O1 0.645635 0.367046 0.98857  -1.04113055556
 O1 0.154872 0.501385 0.98829  -1.04113055556
 O1 0.65488 0.501386 0.98829  -1.04113055556
 O1 0.006344 0.486111 0.15038  -1.04113055556
 O1 0.506352 0.486111 0.15038  -1.04113055556
 O1 0.138793 0.500185 0.13905  -1.04113055556
 O1 0.638801 0.500185 0.13905  -1.04113055556
 O1 0.080537 0.379523 0.12639  -1.04113055556
 O1 0.580545 0.379523 0.12639  -1.04113055556
 O1 0.089409 0.438256 0.24470  -1.04113055556
 O1 0.589417 0.438256 0.24470  -1.04113055556
 O1 0.002814 0.650435 0.99833  -1.04113055556
 O1 0.502821 0.650435 0.9983  -1.04113055556
 O1 0.00656 0.636531 0.13255  -1.04113055556
 O1 0.506568 0.636531 0.1325  -1.04113055556
 O1 0.11786 0.629019 0.05882  -1.04113055556
 O1 0.617868 0.629019 0.05882  -1.04113055556
 O1 0.058058 0.744413 0.07729  -1.04113055556
 O1 0.558066 0.744413 0.07729  -1.04113055556
 O1 0.123406 0.876532 0.06167  -1.04113055556
 O1 0.623414 0.876532 0.06167  -1.04113055556
 O1 0.244488 0.923297 0.07449  -1.04113055556
 O1 0.744496 0.923297 0.07449  -1.04113055556
 O1 0.145699 0.988648 0.13309  -1.04113055556
 O1 0.645707 0.988648 0.13309  -1.04113055556
 O1 0.154878 0.988259 0.99869  -1.04113055556
 O1 0.654886 0.988259 0.99869  -1.04113055556
 O1 0.006609 0.150991 0.01267  -1.04113055556
 O1 0.506617 0.150991 0.01267  -1.04113055556
 O1 0.139028 0.139042 0.99975  -1.04113055556
 O1 0.639036 0.139042 0.99975  -1.04113055556
 O1 0.080227 0.126408 0.1200  -1.04113055556
 O1 0.580235 0.126408 0.1200  -1.04113055556
 O1 0.08968 0.244587 0.06180  -1.04113055556
 O1 0.589688 0.244587 0.06180  -1.04113055556
 O1 0.00277 0.997924 0.85153  -1.04113055556
 O1 0.502778 0.997924 0.85153  -1.04113055556
 O1 0.006354 0.132437 0.86180  -1.04113055556
 O1 0.506362 0.132437 0.86180  -1.04113055556
 O1 0.117816 0.058898 0.87127  -1.04113055556
 O1 0.617824 0.058898 0.87127  -1.04113055556
 O1 0.058128 0.07443 0.75555  -1.04113055556
 O1 0.558136 0.07443 0.75555  -1.04113055556
 O1 0.123397 0.623476 0.43831  -1.04113055556
 O1 0.623405 0.623476 0.43831  -1.04113055556
 O1 0.244479 0.576718 0.42552  -1.04113055556
 O1 0.744487 0.576718 0.42552  -1.04113055556
 O1 0.14571 0.511279 0.36700  -1.04113055556
 O1 0.645718 0.511279 0.36700  -1.04113055556
 O1 0.154885 0.511817 0.50141  -1.04113055556
 O1 0.654893 0.511818 0.50141  -1.04113055556
 O1 0.006605 0.349011 0.48733  -1.04113055556
 O1 0.506613 0.349011 0.48733  -1.04113055556
 O1 0.139022 0.360986 0.5002  -1.04113055556
 O1 0.63903 0.360986 0.5002  -1.04113055556
 O1 0.080212 0.373573 0.37990  -1.04113055556
 O1 0.58022 0.373573 0.37990  -1.04113055556
 O1 0.089684 0.25541 0.43822  -1.04113055556
 O1 0.589692 0.25541 0.43822  -1.04113055556
 O1 0.002768 0.502066 0.64846  -1.04113055556
 O1 0.502776 0.502066 0.64846  -1.04113055556
 O1 0.006361 0.367545 0.63819  -1.04113055556
 O1 0.506369 0.367545 0.63819  -1.04113055556
 O1 0.117825 0.441082 0.62877  -1.04113055556
 O1 0.617833 0.441082 0.62877  -1.04113055556
 O1 0.058099 0.425543 0.74446  -1.04113055556
 O1 0.558107 0.425543 0.74446  -1.04113055556
