#======================================================================

# CRYSTAL DATA

#----------------------------------------------------------------------

data_VESTA_phase_1


_pd_phase_name                         MOF
_cell_length_a                         14.60900
_cell_length_b                         21.98600
_cell_length_c                         21.97200
_cell_angle_alpha                      60.76400
_cell_angle_beta                       90.01400
_cell_angle_gamma                      89.99300
_symmetry_space_group_name_H-M         "P 1"
_symmetry_Int_Tables_number            1

loop_
_symmetry_equiv_pos_as_xyz
   "x, y, z"

loop_
   _atom_site_label
   _atom_site_fract_x
   _atom_site_fract_y
   _atom_site_fract_z
 _atom_site_charge
 In1 0.999844 0.999681 0.50010  1.76579184211
 In1 0.499859 0.99968 0.50010  1.76579184211
 In1 0.250166 0.999686 0.50009  1.76579184211
 In1 0.750181 0.999685 0.50009  1.76579184211
 In1 0.249936 0.501909 0.  1.76579184211
 In1 0.749951 0.501909 0.  1.76579184211
 In1 0.000139 0.50184 0.  1.76579184211
 In1 0.500153 0.50184 0.  1.76579184211
 In1 4.9e-05 0.998062 0.0024  1.76579184211
 In1 0.500063 0.998062 0.00247  1.76579184211
 In1 0.249929 0.997945 0.00256  1.76579184211
 In1 0.749944 0.997944 0.00256  1.76579184211
 H1 0.228055 0.798611 0.68632  0.103963092105
 H1 0.72807 0.798611 0.68632  0.103963092105
 H1 0.021985 0.966782 0.3230  0.103963092105
 H1 0.521999 0.966779 0.32304  0.103963092105
 H1 0.022002 0.962336 0.21074  0.103963092105
 H1 0.522016 0.962339 0.21074  0.103963092105
 H1 0.478077 0.202547 0.31522  0.103963092105
 H1 0.978091 0.202547 0.31522  0.103963092105
 H1 0.271896 0.030722 0.67836  0.103963092105
 H1 0.77191 0.03072 0.67836  0.103963092105
 H1 0.271923 0.033508 0.79123  0.103963092105
 H1 0.771938 0.033508 0.79123  0.103963092105
 H1 0.021816 0.684981 0.7989  0.103963092105
 H1 0.52183 0.684981 0.7989  0.103963092105
 H1 0.228035 0.322684 0.96821  0.103963092105
 H1 0.72805 0.322687 0.96821  0.103963092105
 H1 0.228037 0.209957 0.96567  0.103963092105
 H1 0.728051 0.209955 0.96567  0.103963092105
 H1 0.271928 0.315501 0.20295  0.103963092105
 H1 0.771943 0.3155 0.20295  0.103963092105
 H1 0.477878 0.678964 0.03192  0.103963092105
 H1 0.977892 0.678965 0.03192  0.103963092105
 H1 0.478031 0.790602 0.03743  0.103963092105
 H1 0.978045 0.790601 0.03743  0.103963092105
 H1 0.271868 0.202128 0.31507  0.103963092105
 H1 0.771883 0.202127 0.31507  0.103963092105
 H1 0.478125 0.0311 0.67810  0.103963092105
 H1 0.978139 0.031101 0.67810  0.103963092105
 H1 0.478074 0.033902 0.79097  0.103963092105
 H1 0.978088 0.033901 0.79097  0.103963092105
 H1 0.02198 0.797474 0.68557  0.103963092105
 H1 0.521995 0.797474 0.68557  0.103963092105
 H1 0.228091 0.966959 0.32289  0.103963092105
 H1 0.728106 0.966962 0.3228  0.103963092105
 H1 0.228096 0.962506 0.21060  0.103963092105
 H1 0.728111 0.962503 0.21060  0.103963092105
 H1 0.478137 0.315958 0.20313  0.103963092105
 H1 0.978151 0.315958 0.20313  0.103963092105
 H1 0.271821 0.677754 0.03391  0.103963092105
 H1 0.771836 0.677754 0.03391  0.103963092105
 H1 0.271924 0.789468 0.03929  0.103963092105
 H1 0.771939 0.789469 0.03928  0.103963092105
 H1 0.228017 0.686214 0.7997  0.103963092105
 H1 0.728031 0.686214 0.7997  0.103963092105
 H1 0.021837 0.322284 0.96883  0.103963092105
 H1 0.521851 0.322282 0.9688  0.103963092105
 H1 0.021752 0.209611 0.9662  0.103963092105
 H1 0.521766 0.209613 0.96620  0.103963092105
 H2 0.375335 0.457964 0.10071  0.408211842105
 H2 0.875349 0.457964 0.10071  0.408211842105
 H2 0.125073 0.899768 0.54029  0.408211842105
 H2 0.625087 0.899768 0.54029  0.408211842105
 H2 0.374969 0.099805 0.45949  0.408211842105
 H2 0.874983 0.099804 0.45949  0.408211842105
 H2 0.125364 0.463899 0.93737  0.408211842105
 H2 0.625378 0.4639 0.93737  0.408211842105
 H2 0.125049 0.080915 0.00991  0.408211842105
 H2 0.625063 0.080915 0.00991  0.408211842105
 H2 0.37494 0.989534 0.92014  0.408211842105
 H2 0.874955 0.989535 0.92014  0.408211842105
 C1 0.291987 0.773124 0.71114  -0.0725314912281
 C1 0.792002 0.773125 0.71114  -0.0725314912281
 C1 0.458192 0.965553 0.29803  -0.0725314912281
 C1 0.958206 0.965542 0.2980  -0.0725314912281
 C1 0.458213 0.96291 0.2360  -0.0725314912281
 C1 0.958228 0.962919 0.23607  -0.0725314912281
 C1 0.042036 0.22805 0.29057  -0.0725314912281
 C1 0.542051 0.228049 0.29057  -0.0725314912281
 C1 0.208064 0.031663 0.7034  -0.0725314912281
 C1 0.708079 0.031663 0.70346  -0.0725314912281
 C1 0.207956 0.033114 0.76602  -0.0725314912281
 C1 0.70797 0.033112 0.76602  -0.0725314912281
 C1 0.458021 0.710257 0.77358  -0.0725314912281
 C1 0.958036 0.710254 0.77358  -0.0725314912281
 C1 0.292002 0.297765 0.96727  -0.0725314912281
 C1 0.792016 0.29776 0.9672  -0.0725314912281
 C1 0.292013 0.235123 0.96606  -0.0725314912281
 C1 0.792027 0.235128 0.96605  -0.0725314912281
 C1 0.207951 0.290643 0.22824  -0.0725314912281
 C1 0.707966 0.290643 0.22824  -0.0725314912281
 C1 0.041714 0.703462 0.0339  -0.0725314912281
 C1 0.541729 0.703465 0.03394  -0.0725314912281
 C1 0.041776 0.765092 0.03712  -0.0725314912281
 C1 0.541791 0.76509 0.03713  -0.0725314912281
 C1 0.207929 0.227813 0.29048  -0.0725314912281
 C1 0.707944 0.227812 0.29048  -0.0725314912281
 C1 0.041937 0.031877 0.70332  -0.0725314912281
 C1 0.541952 0.031878 0.70332  -0.0725314912281
 C1 0.042032 0.033333 0.76588  -0.0725314912281
 C1 0.542047 0.03333 0.76588  -0.0725314912281
 C1 0.458004 0.772481 0.71071  -0.0725314912281
 C1 0.958019 0.772483 0.7107  -0.0725314912281
 C1 0.291903 0.965652 0.29795  -0.0725314912281
 C1 0.791917 0.965641 0.29795  -0.0725314912281
 C1 0.291892 0.963004 0.23600  -0.0725314912281
 C1 0.791907 0.963013 0.23599  -0.0725314912281
 C1 0.042078 0.290899 0.22834  -0.0725314912281
 C1 0.542093 0.290899 0.22834  -0.0725314912281
 C1 0.208024 0.702789 0.0350  -0.0725314912281
 C1 0.708038 0.702792 0.03505  -0.0725314912281
 C1 0.208094 0.764452 0.03818  -0.0725314912281
 C1 0.708109 0.76445 0.03818  -0.0725314912281
 C1 0.291866 0.710943 0.77404  -0.0725314912281
 C1 0.79188 0.710941 0.7740  -0.0725314912281
 C1 0.45787 0.297538 0.96761  -0.0725314912281
 C1 0.957885 0.297533 0.96762  -0.0725314912281
 C1 0.457815 0.234927 0.96637  -0.0725314912281
 C1 0.95783 0.234933 0.96636  -0.0725314912281
 C2 0.375054 0.872469 0.61233  0.741783508772
 C2 0.875068 0.872468 0.6123  0.741783508772
 C3 0.375024 0.804453 0.67903  -0.0880206578947
 C3 0.875039 0.804453 0.67903  -0.0880206578947
 C2 0.375028 0.973599 0.39400  0.741783508772
 C2 0.875043 0.973602 0.39  0.741783508772
 C3 0.375043 0.967452 0.32904  -0.0880206578947
 C3 0.875058 0.967452 0.32904  -0.0880206578947
 C3 0.375056 0.962221 0.20442  -0.0880206578947
 C3 0.87507 0.962219 0.20442  -0.0880206578947
 C2 0.375048 0.964441 0.13527  0.741783508772
 C2 0.875063 0.964436 0.13527  0.741783508772
 C2 0.124959 0.12733 0.3883  0.741783508772
 C2 0.624973 0.12733 0.3883  0.741783508772
 C3 0.124966 0.195955 0.32214  -0.0880206578947
 C3 0.624981 0.195954 0.32214  -0.0880206578947
 C2 0.125008 0.025559 0.60632  0.741783508772
 C2 0.625023 0.025557 0.60632  0.741783508772
 C3 0.125003 0.030434 0.67203  -0.0880206578947
 C3 0.625017 0.030433 0.67203  -0.0880206578947
 C3 0.12499 0.033386 0.79806  -0.0880206578947
 C3 0.625004 0.033385 0.79806  -0.0880206578947
 C2 0.124972 0.030536 0.86762  0.741783508772
 C2 0.624987 0.030537 0.86762  0.741783508772
 C2 0.374841 0.613248 0.87445  0.741783508772
 C2 0.874856 0.613248 0.87445  0.741783508772
 C3 0.374917 0.679229 0.80573  -0.0880206578947
 C3 0.874932 0.679229 0.80573  -0.0880206578947
 C2 0.375085 0.395111 0.97311  0.741783508772
 C2 0.8751 0.395114 0.97311  0.741783508772
 C3 0.374948 0.329268 0.96853  -0.0880206578947
 C3 0.874962 0.329268 0.96853  -0.0880206578947
 C3 0.374902 0.20289 0.96611  -0.0880206578947
 C3 0.874916 0.202891 0.9661  -0.0880206578947
 C2 0.374929 0.133171 0.96922  0.741783508772
 C2 0.874944 0.133168 0.96923  0.741783508772
 C2 0.125118 0.38969 0.12864  0.741783508772
 C2 0.625133 0.38969 0.12864  0.741783508772
 C3 0.125032 0.322761 0.19666  -0.0880206578947
 C3 0.625047 0.322761 0.19666  -0.0880206578947
 C2 0.124806 0.607871 0.02541  0.741783508772
 C2 0.624821 0.60787 0.02541  0.741783508772
 C3 0.124842 0.672257 0.03236  -0.0880206578947
 C3 0.624857 0.672257 0.03236  -0.0880206578947
 C3 0.124973 0.796219 0.03866  -0.0880206578947
 C3 0.624988 0.79622 0.03866  -0.0880206578947
 C2 0.125046 0.8652 0.03674  0.741783508772
 C2 0.62506 0.865201 0.03674  0.741783508772
 O1 0.452987 0.898727 0.58676  -0.664364407895
 O1 0.953001 0.898728 0.58676  -0.664364407895
 O1 0.453103 0.976145 0.41865  -0.664364407895
 O1 0.953118 0.976145 0.41865  -0.664364407895
 O1 0.45295 0.96589 0.10844  -0.664364407895
 O1 0.952964 0.965889 0.10844  -0.664364407895
 O1 0.202933 0.100992 0.4135  -0.664364407895
 O1 0.702947 0.100992 0.4135  -0.664364407895
 O1 0.203087 0.02351 0.58149  -0.664364407895
 O1 0.703101 0.023508 0.58149  -0.664364407895
 O1 0.203011 0.028883 0.89460  -0.664364407895
 O1 0.703026 0.028883 0.89460  -0.664364407895
 O1 0.296853 0.588966 0.90126  -0.664364407895
 O1 0.796867 0.588965 0.90126  -0.664364407895
 O1 0.297141 0.420672 0.9744  -0.664364407895
 O1 0.797156 0.420673 0.97444  -0.664364407895
 O1 0.296896 0.106321 0.97090  -0.664364407895
 O1 0.79691 0.106321 0.97090  -0.664364407895
 O1 0.047116 0.415498 0.1027  -0.664364407895
 O1 0.547131 0.415498 0.1027  -0.664364407895
 O1 0.04685 0.584006 0.02137  -0.664364407895
 O1 0.546865 0.584006 0.02137  -0.664364407895
 O1 0.047164 0.892046 0.03529  -0.664364407895
 O1 0.547178 0.892046 0.0352  -0.664364407895
 O1 0.047007 0.100996 0.41355  -0.664364407895
 O1 0.547022 0.100996 0.41355  -0.664364407895
 O1 0.046919 0.023631 0.58141  -0.664364407895
 O1 0.546933 0.023631 0.58141  -0.664364407895
 O1 0.046936 0.029098 0.89448  -0.664364407895
 O1 0.546951 0.029098 0.89448  -0.664364407895
 O1 0.297111 0.89876 0.58673  -0.664364407895
 O1 0.797126 0.898759 0.58673  -0.664364407895
 O1 0.296956 0.97618 0.41861  -0.664364407895
 O1 0.79697 0.976179 0.41861  -0.664364407895
 O1 0.29711 0.965837 0.10848  -0.664364407895
 O1 0.797125 0.965837 0.10848  -0.664364407895
 O1 0.20323 0.414789 0.10241  -0.664364407895
 O1 0.703245 0.414788 0.10241  -0.664364407895
 O1 0.202689 0.5826 0.02367  -0.664364407895
 O1 0.702703 0.582601 0.02367  -0.664364407895
 O1 0.202967 0.891846 0.03558  -0.664364407895
 O1 0.702982 0.891846 0.03558  -0.664364407895
 O1 0.45272 0.587314 0.90013  -0.664364407895
 O1 0.952735 0.587314 0.90013  -0.664364407895
 O1 0.453259 0.419611 0.97580  -0.664364407895
 O1 0.953273 0.419612 0.97580  -0.664364407895
 O1 0.453014 0.106369 0.97087  -0.664364407895
 O1 0.953028 0.106369 0.97087  -0.664364407895
 O2 0.375 0.05202 0.4979  -0.949798157895
 O2 0.875014 0.05202 0.4979  -0.949798157895
 O2 0.125024 0.94779 0.50232  -0.949798157895
 O2 0.625039 0.94779 0.50232  -0.949798157895
 O2 0.375144 0.496984 0.05323  -0.949798157895
 O2 0.875158 0.496984 0.05323  -0.949798157895
 O2 0.125128 0.501155 0.94933  -0.949798157895
 O2 0.625142 0.501155 0.94933  -0.949798157895
 O2 0.375012 0.971497 0.97044  -0.949798157895
 O2 0.875027 0.971497 0.97044  -0.949798157895
 O2 0.125003 0.030525 0.0288  -0.949798157895
 O2 0.625018 0.030525 0.0288  -0.949798157895
