#======================================================================

# CRYSTAL DATA

#----------------------------------------------------------------------

data_VESTA_phase_1


_pd_phase_name                         MOF
_cell_length_a                         13.16700
_cell_length_b                         13.25800
_cell_length_c                         22.40700
_cell_angle_alpha                      89.98600
_cell_angle_beta                       89.98100
_cell_angle_gamma                      102.49300
_symmetry_space_group_name_H-M         "P 1"
_symmetry_Int_Tables_number            1

loop_
_symmetry_equiv_pos_as_xyz
   "x, y, z"

loop_
   _atom_site_label
   _atom_site_fract_x
   _atom_site_fract_y
   _atom_site_fract_z
 _atom_site_charge
 Zn1 0.226886 0.119157 0.8283  0.918085333333
 Zn1 0.25316 0.145539 0.95348  0.918085333333
 Zn1 0.773148 0.880803 0.32836  0.918085333333
 Zn1 0.746809 0.85435 0.45348  0.918085333333
 H1 0.104266 0.977268 0.7337  0.116994916667
 H1 0.098633 0.969256 0.62251  0.116994916667
 H1 0.336797 0.250257 0.6198  0.116994916667
 H1 0.332103 0.247769 0.73  0.116994916667
 H1 0.480281 0.108639 0.45139  0.116994916667
 H1 0.487645 0.118886 0.3394  0.116994916667
 H1 0.977835 0.131976 0.33235  0.116994916667
 H1 0.971946 0.125211 0.44374  0.116994916667
 H1 0.366459 0.272084 0.16615  0.116994916667
 H1 0.370137 0.272984 0.05432  0.116994916667
 H1 0.132854 0.010565 0.04557  0.116994916667
 H1 0.120496 0.997603 0.1564  0.116994916667
 H1 0.236279 0.432929 0.77817  0.116994916667
 H1 0.227416 0.617629 0.7646  0.116994916667
 H1 0.270289 0.476544 0.96729  0.116994916667
 H1 0.224735 0.789818 0.80936  0.116994916667
 H1 0.263296 0.834451 0.99839  0.116994916667
 H1 0.276217 0.650901 0.01150  0.116994916667
 H1 0.903344 0.124247 0.81485  0.116994916667
 H1 0.752511 0.151723 0.01696  0.116994916667
 H1 0.938193 0.138352 0.  0.116994916667
 H1 0.731794 0.129404 0.76854  0.116994916667
 H1 0.544909 0.135659 0.78053  0.116994916667
 H1 0.580768 0.155992 0.97073  0.116994916667
 H1 0.895753 0.022616 0.23357  0.116994916667
 H1 0.901279 0.030554 0.12235  0.116994916667
 H1 0.663178 0.749508 0.11997  0.116994916667
 H1 0.667981 0.752066 0.23212  0.116994916667
 H1 0.519628 0.89124 0.95149  0.116994916667
 H1 0.512232 0.881075 0.83955  0.116994916667
 H1 0.022026 0.867901 0.83221  0.116994916667
 H1 0.027952 0.874627 0.94359  0.116994916667
 H1 0.633396 0.727827 0.66623  0.116994916667
 H1 0.629713 0.72689 0.55441  0.116994916667
 H1 0.866929 0.989365 0.54546  0.116994916667
 H1 0.879293 0.00236 0.65630  0.116994916667
 H1 0.763825 0.567173 0.2781  0.116994916667
 H1 0.772663 0.382489 0.26459  0.116994916667
 H1 0.729667 0.523266 0.46729  0.116994916667
 H1 0.775298 0.210222 0.30928  0.116994916667
 H1 0.736585 0.16531 0.49831  0.116994916667
 H1 0.723652 0.348849 0.51144  0.116994916667
 H1 0.09676 0.875727 0.31485  0.116994916667
 H1 0.24729 0.848073 0.51695  0.116994916667
 H1 0.061646 0.861478 0.50492  0.116994916667
 H1 0.268373 0.870579 0.26855  0.116994916667
 H1 0.455237 0.864317 0.28055  0.116994916667
 H1 0.419112 0.843844 0.47075  0.116994916667
 C1 0.15465 0.03633 0.70699  0.183572833333
 C2 0.151706 0.032057 0.64495  -0.108784666667
 C3 0.217881 0.109642 0.61298  0.266385333333
 C2 0.284258 0.188887 0.64372  -0.108784666667
 C1 0.282462 0.187674 0.70560  0.183572833333
 C4 0.125399 0.113043 0.51861  0.519420333333
 C5 0.132599 0.120493 0.45285  -0.0549103809524
 C5 0.227954 0.120658 0.42343  -0.0549103809524
 C5 0.318838 0.11403 0.45554  -0.0549103809524
 C4 0.316208 0.10642 0.52121  0.519420333333
 C2 0.411519 0.113868 0.42560  -0.108784666667
 C2 0.415677 0.119699 0.36321  -0.108784666667
 C5 0.327066 0.125014 0.3305  -0.0549103809524
 C5 0.231998 0.125633 0.35992  -0.0549103809524
 C5 0.140411 0.129573 0.3276  -0.0549103809524
 C2 0.048076 0.130451 0.35759  -0.108784666667
 C2 0.044388 0.126298 0.42012  -0.108784666667
 C4 0.141481 0.131246 0.2617  0.519420333333
 C4 0.333319 0.128625 0.26477  0.519420333333
 C3 0.242887 0.134496 0.16983  0.266385333333
 C2 0.313663 0.212922 0.14095  -0.108784666667
 C1 0.316047 0.213649 0.07896  0.183572833333
 C1 0.183681 0.066551 0.07386  0.183572833333
 C2 0.176889 0.059919 0.13572  -0.108784666667
 C6 0.254689 0.332261 0.88117  0.678550333333
 C5 0.254056 0.444688 0.87389  -0.0549103809524
 C2 0.242457 0.48509 0.81616  -0.108784666667
 C2 0.237461 0.586971 0.80894  -0.108784666667
 C5 0.243999 0.654079 0.85892  -0.0549103809524
 C5 0.257702 0.613967 0.91730  -0.0549103809524
 C2 0.261963 0.508714 0.92324  -0.108784666667
 C2 0.235876 0.758378 0.85326  -0.108784666667
 C5 0.2417 0.821792 0.9028  -0.0549103809524
 C2 0.257593 0.782493 0.96033  -0.108784666667
 C2 0.265047 0.681245 0.96725  -0.108784666667
 C6 0.232018 0.931928 0.89631  0.678550333333
 C6 0.04062 0.119671 0.90223  0.678550333333
 C5 0.92994 0.129237 0.90883  -0.0549103809524
 C2 0.868878 0.129816 0.85864  -0.108784666667
 C5 0.76378 0.137191 0.86357  -0.0549103809524
 C5 0.720758 0.144907 0.92194  -0.0549103809524
 C2 0.785527 0.145337 0.97276  -0.108784666667
 C2 0.887577 0.137788 0.96643  -0.108784666667
 C2 0.698797 0.135246 0.81279  -0.108784666667
 C2 0.595876 0.139443 0.81908  -0.108784666667
 C5 0.553346 0.147467 0.87666  -0.0549103809524
 C2 0.615173 0.150529 0.92691  -0.108784666667
 C6 0.440453 0.149417 0.8831  0.678550333333
 C1 0.845357 0.963529 0.20690  0.183572833333
 C2 0.848241 0.967764 0.14486  -0.108784666667
 C3 0.782053 0.890153 0.1129  0.266385333333
 C2 0.715723 0.810906 0.14378  -0.108784666667
 C1 0.717578 0.812156 0.20566  0.183572833333
 C4 0.874513 0.886809 0.01856  0.519420333333
 C5 0.867303 0.879351 0.95279  -0.0549103809524
 C5 0.771939 0.879199 0.92341  -0.0549103809524
 C5 0.681062 0.885816 0.95556  -0.0549103809524
 C4 0.683706 0.89343 0.02124  0.519420333333
 C2 0.58838 0.886016 0.92567  -0.108784666667
 C2 0.584204 0.880223 0.86328  -0.108784666667
 C5 0.672805 0.874915 0.8305  -0.0549103809524
 C5 0.767874 0.874257 0.85990  -0.0549103809524
 C5 0.859454 0.87033 0.82754  -0.0549103809524
 C2 0.951793 0.869426 0.85748  -0.108784666667
 C2 0.955504 0.873559 0.92001  -0.108784666667
 C4 0.858373 0.868679 0.7616  0.519420333333
 C4 0.666556 0.871331 0.76479  0.519420333333
 C3 0.75695 0.86543 0.66982  0.266385333333
 C2 0.686181 0.786988 0.64099  -0.108784666667
 C1 0.683794 0.786244 0.57900  0.183572833333
 C1 0.81612 0.933371 0.57380  0.183572833333
 C2 0.822917 0.940021 0.63565  -0.108784666667
 C6 0.745335 0.667683 0.3811  0.678550333333
 C5 0.74597 0.555268 0.37389  -0.0549103809524
 C2 0.757613 0.514953 0.31614  -0.108784666667
 C2 0.762593 0.413079 0.30890  -0.108784666667
 C5 0.756004 0.345889 0.35887  -0.0549103809524
 C5 0.74227 0.385919 0.4172  -0.0549103809524
 C2 0.738024 0.491166 0.42322  -0.108784666667
 C2 0.76412 0.241595 0.35319  -0.108784666667
 C5 0.758268 0.178115 0.40275  -0.0549103809524
 C2 0.742321 0.217327 0.46025  -0.108784666667
 C2 0.734867 0.318565 0.46720  -0.108784666667
 C6 0.767972 0.067993 0.39622  0.678550333333
 C6 0.959362 0.880256 0.40224  0.678550333333
 C5 0.070031 0.870672 0.40883  -0.0549103809524
 C2 0.131158 0.87011 0.35865  -0.108784666667
 C5 0.236249 0.862727 0.36358  -0.0549103809524
 C5 0.279188 0.854957 0.42195  -0.0549103809524
 C2 0.214348 0.854494 0.4727  -0.108784666667
 C2 0.11231 0.862057 0.46643  -0.108784666667
 C2 0.301304 0.864704 0.31280  -0.108784666667
 C2 0.404215 0.860504 0.31910  -0.108784666667
 C5 0.446669 0.852447 0.3766  -0.0549103809524
 C2 0.384768 0.849335 0.4269  -0.108784666667
 C6 0.559563 0.850525 0.38319  0.678550333333
 N1 0.218855 0.11267 0.73679  -0.293574666667
 N2 0.219334 0.109704 0.54891  -0.284439666667
 N2 0.238669 0.130947 0.23395  -0.284439666667
 N1 0.252243 0.142024 0.04581  -0.293574666667
 N1 0.781194 0.887192 0.2367  -0.293574666667
 N2 0.780565 0.89007 0.048  -0.284439666667
 N2 0.761193 0.868985 0.73393  -0.284439666667
 N1 0.747583 0.857874 0.54580  -0.293574666667
 O1 0.044841 0.110963 0.54663  -0.458602166667
 O1 0.391136 0.097836 0.55166  -0.458602166667
 O1 0.064262 0.133329 0.23140  -0.458602166667
 O1 0.413271 0.128721 0.23688  -0.458602166667
 O2 0.40904 0.169166 0.9347  -0.596014666667
 O2 0.384969 0.129303 0.83635  -0.596014666667
 O2 0.074734 0.11574 0.8492  -0.596014666667
 O2 0.091739 0.115768 0.95003  -0.596014666667
 O2 0.248451 0.987704 0.9430  -0.596014666667
 O2 0.2077 0.961412 0.84503  -0.596014666667
 O2 0.254026 0.297575 0.93432  -0.596014666667
 O2 0.25414 0.279825 0.8334  -0.596014666667
 O1 0.955083 0.888971 0.0465  -0.458602166667
 O1 0.608811 0.902091 0.05173  -0.458602166667
 O1 0.935585 0.866588 0.73131  -0.458602166667
 O1 0.58663 0.871253 0.7369  -0.458602166667
 O2 0.590944 0.830768 0.43478  -0.596014666667
 O2 0.61508 0.870651 0.33636  -0.596014666667
 O2 0.925289 0.884207 0.34923  -0.596014666667
 O2 0.908207 0.88415 0.45005  -0.596014666667
 O2 0.751566 0.012196 0.44297  -0.596014666667
 O2 0.792267 0.038543 0.3449  -0.596014666667
 O2 0.745984 0.702331 0.43433  -0.596014666667
 O2 0.745879 0.720153 0.33349  -0.596014666667
