#======================================================================

# CRYSTAL DATA

#----------------------------------------------------------------------

data_VESTA_phase_1


_pd_phase_name                         MOF
_cell_length_a                         13.58500
_cell_length_b                         14.44700
_cell_length_c                         14.45100
_cell_angle_alpha                      69.28600
_cell_angle_beta                       71.79600
_cell_angle_gamma                      108.20600
_symmetry_space_group_name_H-M         "P 1"
_symmetry_Int_Tables_number            1

loop_
_symmetry_equiv_pos_as_xyz
   "x, y, z"

loop_
   _atom_site_label
   _atom_site_fract_x
   _atom_site_fract_y
   _atom_site_fract_z
 _atom_site_charge
 Ga1 0.144754 0.16924 0.37718  1.70447369792
 Ga2 0.186658 0.867102 0.54522  1.46640369792
 Ga1 0.521951 0.377179 0.45341  1.70447369792
 Ga2 0.732317 0.545188 0.58803  1.46640369792
 Ga1 0.975203 0.453597 0.16950  1.70447369792
 Ga2 0.320097 0.58784 0.86694  1.46640369792
 Ga1 0.85524 0.830792 0.6228  1.70447369792
 Ga2 0.813336 0.13293 0.45478  1.46640369792
 Ga1 0.478043 0.622853 0.54659  1.70447369792
 Ga2 0.267677 0.454844 0.41197  1.46640369792
 Ga1 0.024791 0.546435 0.83050  1.70447369792
 Ga2 0.679897 0.412192 0.13306  1.46640369792
 P1 0.064698 0.94639 0.39589  1.83338203125
 P1 0.065066 0.354099 0.33296  1.83338203125
 P1 0.461615 0.396045 0.65772  1.83338203125
 P1 0.397856 0.332757 0.31304  1.83338203125
 P1 0.118874 0.657705 0.94600  1.83338203125
 P1 0.711145 0.313268 0.35405  1.83338203125
 P1 0.935296 0.053642 0.60411  1.83338203125
 P1 0.934928 0.645933 0.6670  1.83338203125
 P1 0.538379 0.603987 0.34228  1.83338203125
 P1 0.602138 0.667275 0.68697  1.83338203125
 P1 0.88112 0.342327 0.05400  1.83338203125
 P1 0.288849 0.686764 0.64595  1.83338203125
 H1 0.31731 0.838549 0.39441  0.319889697917
 H1 0.237224 0.893931 0.34694  0.319889697917
 H1 0.30407 0.08575 0.45657  0.319889697917
 H1 0.100597 0.802358 0.7593  0.319889697917
 H1 0.038021 0.872875 0.70306  0.319889697917
 H2 0.469479 0.020728 0.25686  0.0894778645833
 H2 0.366307 0.072401 0.28273  0.0894778645833
 H2 0.384618 0.100762 0.5803  0.0894778645833
 H2 0.353328 0.956687 0.62960  0.0894778645833
 H2 0.502979 0.126346 0.3604  0.0894778645833
 H2 0.456922 0.980525 0.44528  0.0894778645833
 H2 0.192923 0.963409 0.76228  0.0894778645833
 H2 0.171949 0.042377 0.64988  0.0894778645833
 H1 0.712985 0.394149 0.76714  0.319889697917
 H1 0.585302 0.346914 0.75955  0.319889697917
 H1 0.760375 0.456453 0.45810  0.319889697917
 H1 0.859906 0.759477 0.43836  0.319889697917
 H1 0.740851 0.703301 0.42466  0.319889697917
 H2 0.727302 0.256508 0.72236  0.0894778645833
 H2 0.649569 0.282592 0.64526  0.0894778645833
 H2 0.964259 0.580049 0.31886  0.0894778645833
 H2 0.982649 0.629341 0.41350  0.0894778645833
 H2 0.863557 0.360068 0.51309  0.0894778645833
 H2 0.902645 0.444881 0.5739  0.0894778645833
 H2 0.954372 0.762184 0.27438  0.0894778645833
 H2 0.820966 0.649906 0.30821  0.0894778645833
 H1 0.4789 0.767132 0.8388  0.319889697917
 H1 0.343492 0.759139 0.89384  0.319889697917
 H1 0.218552 0.457781 0.08565  0.319889697917
 H1 0.299348 0.438269 0.80231  0.319889697917
 H1 0.16653 0.424546 0.87167  0.319889697917
 H2 0.448802 0.722278 0.02118  0.0894778645833
 H2 0.29418 0.644971 0.07238  0.0894778645833
 H2 0.283664 0.318596 0.10146  0.0894778645833
 H2 0.396542 0.413234 0.95760  0.0894778645833
 H2 0.376578 0.512973 0.1269  0.0894778645833
 H2 0.476294 0.573852 0.98135  0.0894778645833
 H2 0.229439 0.273986 0.96395  0.0894778645833
 H2 0.129938 0.308235 0.0419  0.0894778645833
 H1 0.682684 0.161483 0.60559  0.319889697917
 H1 0.76277 0.106101 0.65306  0.319889697917
 H1 0.695924 0.914282 0.54343  0.319889697917
 H1 0.899397 0.197674 0.24066  0.319889697917
 H1 0.961973 0.127157 0.29694  0.319889697917
 H2 0.530516 0.979304 0.74315  0.0894778645833
 H2 0.633687 0.927631 0.7172  0.0894778645833
 H2 0.615376 0.89927 0.41969  0.0894778645833
 H2 0.646667 0.043345 0.37040  0.0894778645833
 H2 0.497015 0.873686 0.63956  0.0894778645833
 H2 0.543073 0.019507 0.55472  0.0894778645833
 H2 0.80707 0.036623 0.23772  0.0894778645833
 H2 0.828045 0.957655 0.35013  0.0894778645833
 H1 0.28701 0.605883 0.23287  0.319889697917
 H1 0.414692 0.653118 0.24045  0.319889697917
 H1 0.239619 0.543579 0.54191  0.319889697917
 H1 0.140088 0.240555 0.56164  0.319889697917
 H1 0.259144 0.296731 0.57534  0.319889697917
 H2 0.272692 0.743525 0.27764  0.0894778645833
 H2 0.350426 0.71744 0.35474  0.0894778645833
 H2 0.035735 0.419983 0.68114  0.0894778645833
 H2 0.017345 0.370691 0.5865  0.0894778645833
 H2 0.136437 0.639964 0.48691  0.0894778645833
 H2 0.097349 0.555151 0.42610  0.0894778645833
 H2 0.045623 0.237848 0.72562  0.0894778645833
 H2 0.179028 0.350127 0.69179  0.0894778645833
 H1 0.521094 0.2329 0.16115  0.319889697917
 H1 0.656502 0.240893 0.10616  0.319889697917
 H1 0.781442 0.542251 0.91436  0.319889697917
 H1 0.700646 0.561764 0.19770  0.319889697917
 H1 0.833464 0.575486 0.12833  0.319889697917
 H2 0.551192 0.277754 0.97882  0.0894778645833
 H2 0.705814 0.355061 0.92763  0.0894778645833
 H2 0.71633 0.681436 0.89854  0.0894778645833
 H2 0.603453 0.586798 0.04240  0.0894778645833
 H2 0.623416 0.48706 0.87302  0.0894778645833
 H2 0.5237 0.42618 0.01865  0.0894778645833
 H2 0.770555 0.726046 0.03606  0.0894778645833
 H2 0.870056 0.691797 0.95804  0.0894778645833
 C1 0.394293 0.012879 0.32288  0.01228203125
 C1 0.429999 0.040271 0.4044  0.01228203125
 C1 0.325126 0.018506 0.59628  0.01228203125
 C1 0.198754 0.978335 0.68036  0.01228203125
 C1 0.717894 0.322649 0.66435  0.01228203125
 C1 0.834716 0.404113 0.55523  0.01228203125
 C1 0.920985 0.596074 0.38519  0.01228203125
 C1 0.878491 0.680313 0.34154  0.01228203125
 C1 0.381551 0.664171 0.01316  0.01228203125
 C1 0.389728 0.555095 0.04081  0.01228203125
 C1 0.306606 0.384944 0.01905  0.01228203125
 C1 0.220697 0.341314 0.97842  0.01228203125
 C1 0.605701 0.987153 0.67712  0.01228203125
 C1 0.569995 0.959761 0.59558  0.01228203125
 C1 0.674868 0.981526 0.40372  0.01228203125
 C1 0.80124 0.021697 0.31964  0.01228203125
 C1 0.2821 0.677383 0.33565  0.01228203125
 C1 0.165278 0.595919 0.44477  0.01228203125
 C1 0.079009 0.403958 0.61482  0.01228203125
 C1 0.121503 0.319719 0.6584  0.01228203125
 C1 0.618443 0.335861 0.9868  0.01228203125
 C1 0.610266 0.444937 0.95919  0.01228203125
 C1 0.693388 0.615088 0.98095  0.01228203125
 C1 0.779297 0.658718 0.02158  0.01228203125
 N1 0.291483 0.899175 0.38480  -0.648633802083
 N2 0.324338 0.023615 0.49276  -0.42703296875
 N1 0.117107 0.873465 0.69129  -0.648633802083
 N1 0.677287 0.384676 0.71629  -0.648633802083
 N2 0.817068 0.492583 0.48376  -0.42703296875
 N1 0.808252 0.691406 0.43555  -0.648633802083
 N1 0.392572 0.716067 0.89927  -0.648633802083
 N2 0.300865 0.48353 0.02387  -0.42703296875
 N1 0.244592 0.435386 0.87309  -0.648633802083
 N1 0.708511 0.100858 0.61520  -0.648633802083
 N2 0.675656 0.976417 0.50724  -0.42703296875
 N1 0.882887 0.126567 0.30871  -0.648633802083
 N1 0.322708 0.615356 0.28371  -0.648633802083
 N2 0.182926 0.507449 0.51624  -0.42703296875
 N1 0.191742 0.308626 0.56445  -0.648633802083
 N1 0.607422 0.283965 0.10073  -0.648633802083
 N2 0.699129 0.516502 0.97613  -0.42703296875
 N1 0.755403 0.564646 0.12691  -0.648633802083
 O1 0.11158 0.951329 0.48089  -0.940249159226
 O1 0.090709 0.072541 0.32533  -0.940249159226
 O1 0.924186 0.870996 0.47038  -0.940249159226
 O2 0.113913 0.902824 0.32296  -0.895996302083
 O1 0.121741 0.286724 0.29317  -0.940249159226
 O1 0.087411 0.451669 0.22057  -0.940249159226
 O1 0.121281 0.405908 0.39082  -0.940249159226
 O1 0.93101 0.280177 0.41084  -0.940249159226
 O1 0.593153 0.481321 0.56790  -0.940249159226
 O1 0.417207 0.325542 0.60214  -0.940249159226
 O1 0.395132 0.470382 0.65879  -0.940249159226
 O2 0.438207 0.323024 0.77418  -0.895996302083
 O1 0.41485 0.293169 0.42026  -0.940249159226
 O1 0.307821 0.220162 0.32836  -0.940249159226
 O1 0.511711 0.390248 0.2034  -0.940249159226
 O1 0.341584 0.410802 0.30877  -0.940249159226
 O1 0.16083 0.567809 0.95062  -0.940249159226
 O1 0.019092 0.602326 0.07199  -0.940249159226
 O1 0.053473 0.658744 0.87061  -0.940249159226
 O2 0.211636 0.774191 0.90246  -0.895996302083
 O1 0.834947 0.420624 0.28633  -0.940249159226
 O1 0.636384 0.328389 0.45142  -0.940249159226
 O1 0.715958 0.203735 0.40593  -0.940249159226
 O1 0.650436 0.308941 0.28045  -0.940249159226
 O1 0.888414 0.048703 0.51912  -0.940249159226
 O1 0.909285 0.927491 0.67467  -0.940249159226
 O1 0.075808 0.129036 0.52962  -0.940249159226
 O2 0.886081 0.097208 0.67704  -0.895996302083
 O1 0.878253 0.713308 0.70683  -0.940249159226
 O1 0.912583 0.548363 0.77944  -0.940249159226
 O1 0.878713 0.594124 0.60918  -0.940249159226
 O1 0.068984 0.719855 0.58916  -0.940249159226
 O1 0.406841 0.518711 0.43210  -0.940249159226
 O1 0.582787 0.67449 0.39787  -0.940249159226
 O1 0.604862 0.52965 0.34121  -0.940249159226
 O2 0.561787 0.677008 0.22583  -0.895996302083
 O1 0.585144 0.706863 0.5797  -0.940249159226
 O1 0.692173 0.77987 0.67164  -0.940249159226
 O1 0.488283 0.609784 0.79657  -0.940249159226
 O1 0.65841 0.58923 0.6912  -0.940249159226
 O1 0.839164 0.432223 0.04938  -0.940249159226
 O1 0.980902 0.397706 0.92801  -0.940249159226
 O1 0.946521 0.341288 0.12940  -0.940249159226
 O2 0.788358 0.225841 0.09754  -0.895996302083
 O1 0.165047 0.579408 0.71367  -0.940249159226
 O1 0.363611 0.671643 0.54858  -0.940249159226
 O1 0.284036 0.796297 0.59408  -0.940249159226
 O1 0.349558 0.691091 0.71956  -0.940249159226
