#======================================================================

# CRYSTAL DATA

#----------------------------------------------------------------------

data_VESTA_phase_1


_pd_phase_name                         MOF
_cell_length_a                         14.86400
_cell_length_b                         13.09600
_cell_length_c                         13.10000
_cell_angle_alpha                      92.40900
_cell_angle_beta                       95.21800
_cell_angle_gamma                      84.85700
_symmetry_space_group_name_H-M         "P 1"
_symmetry_Int_Tables_number            1

loop_
_symmetry_equiv_pos_as_xyz
   "x, y, z"

loop_
   _atom_site_label
   _atom_site_fract_x
   _atom_site_fract_y
   _atom_site_fract_z
 _atom_site_charge
 Zn1 0.359458 0.386369 0.79091  0.9761349
 Zn1 0.859463 0.386369 0.79091  0.9761349
 Zn1 0.140526 0.790818 0.38645  0.9761349
 Zn1 0.640531 0.790818 0.38645  0.9761349
 Zn1 0.140553 0.61363 0.2090  0.9761349
 Zn1 0.640558 0.61363 0.2090  0.9761349
 Zn1 0.359485 0.209179 0.61354  0.9761349
 Zn1 0.85949 0.209179 0.61354  0.9761349
 Zn2 0.249976 0.843235 0.84327  0.6905199
 Zn2 0.749981 0.843235 0.84327  0.6905199
 Zn2 0.250032 0.156775 0.1567  0.6905199
 Zn2 0.750037 0.156775 0.1567  0.6905199
 Zn3 0.999954 0.814113 0.81402  0.8177099
 Zn3 0.499949 0.814113 0.81402  0.8177099
 Zn3 0.0 0.185888 0.18597  0.8177099
 Zn3 0.500065 0.185887 0.18597  0.8177099
 H1 0.041375 0.487136 0.72027  0.3345224
 H1 0.54138 0.487136 0.72027  0.3345224
 H1 0.070716 0.610286 0.73643  0.3345224
 H1 0.570721 0.610286 0.73643  0.3345224
 H1 0.46492 0.727704 0.13424  0.3345224
 H1 0.964925 0.727704 0.13424  0.3345224
 H1 0.422783 0.796996 0.03108  0.3345224
 H1 0.922789 0.796997 0.03108  0.3345224
 H2 0.242407 0.588117 0.8370  0.0865249
 H2 0.742412 0.588118 0.83702  0.0865249
 H2 0.2703 0.688594 0.04452  0.0865249
 H2 0.770305 0.688593 0.04452  0.0865249
 H1 0.458441 0.720136 0.48696  0.3345224
 H1 0.958447 0.720137 0.48696  0.3345224
 H1 0.428928 0.736479 0.60991  0.3345224
 H1 0.928933 0.73648 0.60991  0.3345224
 H1 0.035683 0.13353 0.72635  0.3345224
 H1 0.535689 0.13353 0.7263  0.3345224
 H1 0.077184 0.030649 0.79626  0.3345224
 H1 0.577189 0.030649 0.79626  0.3345224
 H2 0.257356 0.837244 0.58834  0.0865249
 H2 0.757361 0.837244 0.58834  0.0865249
 H2 0.22939 0.044959 0.68916  0.0865249
 H2 0.729395 0.04496 0.68916  0.0865249
 H1 0.458633 0.512871 0.27971  0.3345224
 H1 0.958638 0.512871 0.27971  0.3345224
 H1 0.429288 0.389725 0.26354  0.3345224
 H1 0.929293 0.389725 0.26354  0.3345224
 H1 0.035086 0.272304 0.86575  0.3345224
 H1 0.535092 0.272303 0.86575  0.3345224
 H1 0.077227 0.203012 0.96891  0.3345224
 H1 0.577231 0.203011 0.96891  0.3345224
 H2 0.257598 0.411889 0.16294  0.0865249
 H2 0.757602 0.411889 0.16294  0.0865249
 H2 0.229711 0.311415 0.95547  0.0865249
 H2 0.729715 0.311415 0.95547  0.0865249
 H1 0.041568 0.279879 0.51303  0.3345224
 H1 0.541573 0.27988 0.51303  0.3345224
 H1 0.071076 0.263543 0.39007  0.3345224
 H1 0.571081 0.263544 0.39007  0.3345224
 H1 0.464324 0.866473 0.27363  0.3345224
 H1 0.964329 0.866473 0.27363  0.3345224
 H1 0.422825 0.969356 0.20373  0.3345224
 H1 0.922831 0.969356 0.2037  0.3345224
 H2 0.242649 0.162777 0.41165  0.0865249
 H2 0.742654 0.162778 0.41165  0.0865249
 H2 0.27062 0.955044 0.31082  0.0865249
 H2 0.770625 0.955044 0.31082  0.0865249
 H3 0.486126 0.325979 0.67430  0.4284199
 H3 0.986131 0.325979 0.67430  0.4284199
 H3 0.013885 0.674014 0.32570  0.4284199
 H3 0.51389 0.674014 0.32570  0.4284199
 C1 0.308766 0.607803 0.82056  0.2792949
 C1 0.808771 0.607803 0.82056  0.2792949
 C2 0.446669 0.593964 0.78028  0.6234449
 C2 0.946674 0.593964 0.78028  0.6234449
 C1 0.199405 0.711262 0.022  0.2792949
 C1 0.69941 0.711261 0.022  0.2792949
 C2 0.054644 0.739019 0.02858  0.6234449
 C2 0.55465 0.739018 0.02858  0.6234449
 C1 0.19097 0.820759 0.607  0.2792949
 C1 0.690975 0.820759 0.607  0.2792949
 C2 0.053024 0.780443 0.59385  0.6234449
 C2 0.55303 0.780442 0.59385  0.6234449
 C1 0.300323 0.022938 0.71144  0.2792949
 C1 0.800327 0.022939 0.71144  0.2792949
 C2 0.445215 0.028509 0.73856  0.6234449
 C2 0.945219 0.028509 0.73856  0.6234449
 C1 0.191239 0.392203 0.1794  0.2792949
 C1 0.691243 0.392203 0.1794  0.2792949
 C2 0.053336 0.406043 0.2196  0.6234449
 C2 0.553341 0.406042 0.21969  0.6234449
 C1 0.300605 0.288745 0.97729  0.2792949
 C1 0.80061 0.288745 0.97729  0.2792949
 C2 0.445366 0.260988 0.97141  0.6234449
 C2 0.945371 0.260989 0.97141  0.6234449
 C1 0.309036 0.179262 0.39209  0.2792949
 C1 0.80904 0.179262 0.39209  0.2792949
 C2 0.446981 0.219578 0.40613  0.6234449
 C2 0.946986 0.219577 0.40613  0.6234449
 C1 0.199687 0.977064 0.28854  0.2792949
 C1 0.699693 0.977064 0.28854  0.2792949
 C2 0.054795 0.971492 0.26142  0.6234449
 C2 0.554801 0.971492 0.2614  0.6234449
 C3 0.295355 0.974185 0.02582  0.5054999
 C3 0.795364 0.974188 0.02581  0.5054999
 C3 0.204649 0.025814 0.9741  0.5054999
 C3 0.704651 0.025811 0.97418  0.5054999
 S1 0.172403 0.311921 0.68787  1.6670199
 S1 0.672408 0.311921 0.68787  1.6670199
 S1 0.327607 0.688069 0.31212  1.6670199
 S1 0.827612 0.688069 0.31212  1.6670199
 N1 0.332253 0.702659 0.8206  -0.3195026
 N1 0.832258 0.702659 0.8206  -0.3195026
 N1 0.420858 0.695055 0.79309  -0.3195026
 N1 0.920863 0.695055 0.79309  -0.3195026
 N2 0.3772 0.536613 0.796  -0.56723135
 N2 0.877205 0.536613 0.79649  -0.56723135
 N3 0.031688 0.556644 0.75915  -0.7243551
 N3 0.531693 0.556644 0.75915  -0.7243551
 N1 0.169967 0.762677 0.93971  -0.3195026
 N1 0.669972 0.762676 0.93971  -0.3195026
 N1 0.076259 0.781326 0.94273  -0.3195026
 N1 0.576264 0.781325 0.94273  -0.3195026
 N2 0.130861 0.693019 0.08005  -0.56723135
 N2 0.630866 0.693018 0.08005  -0.56723135
 N3 0.469307 0.738781 0.05803  -0.7243551
 N3 0.969312 0.738781 0.05803  -0.7243551
 N1 0.16751 0.820754 0.70269  -0.3195026
 N1 0.667515 0.820754 0.70269  -0.3195026
 N1 0.07887 0.793173 0.69496  -0.3195026
 N1 0.578875 0.793172 0.69496  -0.3195026
 N2 0.122493 0.796739 0.53662  -0.56723135
 N2 0.622498 0.796738 0.53662  -0.56723135
 N3 0.46798 0.759258 0.55636  -0.7243551
 N3 0.967985 0.759259 0.55636  -0.7243551
 N1 0.32979 0.939912 0.76281  -0.3195026
 N1 0.829794 0.939912 0.76281  -0.3195026
 N1 0.423559 0.942717 0.78104  -0.3195026
 N1 0.923563 0.942717 0.78104  -0.3195026
 N2 0.368932 0.080146 0.6928  -0.56723135
 N2 0.868937 0.080146 0.6928  -0.56723135
 N3 0.030681 0.057513 0.7379  -0.7243551
 N3 0.530687 0.057514 0.73798  -0.7243551
 N1 0.167752 0.297347 0.17933  -0.3195026
 N1 0.667756 0.297347 0.17933  -0.3195026
 N1 0.079147 0.304951 0.20688  -0.3195026
 N1 0.579152 0.304951 0.20688  -0.3195026
 N2 0.122805 0.463392 0.20347  -0.56723135
 N2 0.62281 0.463392 0.20347  -0.56723135
 N3 0.468317 0.443366 0.24082  -0.7243551
 N3 0.968322 0.443366 0.24082  -0.7243551
 N1 0.330043 0.237324 0.06027  -0.3195026
 N1 0.830047 0.237325 0.06027  -0.3195026
 N1 0.423751 0.218675 0.05726  -0.3195026
 N1 0.923755 0.218676 0.05726  -0.3195026
 N2 0.36915 0.306991 0.91994  -0.56723135
 N2 0.869155 0.306991 0.91994  -0.56723135
 N3 0.030702 0.261229 0.94196  -0.7243551
 N3 0.530708 0.261228 0.94196  -0.7243551
 N1 0.332495 0.179266 0.29729  -0.3195026
 N1 0.8325 0.179266 0.29729  -0.3195026
 N1 0.421135 0.206847 0.3050  -0.3195026
 N1 0.92114 0.206847 0.3050  -0.3195026
 N2 0.377513 0.203282 0.46337  -0.56723135
 N2 0.877518 0.203282 0.46337  -0.56723135
 N3 0.032026 0.240762 0.44362  -0.7243551
 N3 0.532031 0.240763 0.44362  -0.7243551
 N1 0.170219 0.060093 0.23718  -0.3195026
 N1 0.670224 0.060093 0.23718  -0.3195026
 N1 0.07645 0.057287 0.21895  -0.3195026
 N1 0.576456 0.057287 0.21895  -0.3195026
 N2 0.131079 0.919853 0.30714  -0.56723135
 N2 0.631084 0.919853 0.30714  -0.56723135
 N3 0.469328 0.942489 0.26201  -0.7243551
 N3 0.969333 0.942489 0.26201  -0.7243551
 O1 0.226053 0.395406 0.74216  -0.7844401
 O1 0.726058 0.395406 0.74216  -0.7844401
 O2 0.328818 0.892871 0.98271  -0.5129601
 O2 0.82883 0.892879 0.98271  -0.5129601
 O1 0.273046 0.738458 0.3965  -0.7844401
 O1 0.773051 0.738458 0.3965  -0.7844401
 O2 0.171121 0.982685 0.89284  -0.5129601
 O2 0.671118 0.982677 0.89285  -0.5129601
 O1 0.273956 0.604584 0.25784  -0.7844401
 O1 0.773962 0.604584 0.25784  -0.7844401
 O2 0.171186 0.107127 0.01728  -0.5129601
 O2 0.671185 0.10712 0.0172  -0.5129601
 O1 0.226964 0.261534 0.60343  -0.7844401
 O1 0.726969 0.261534 0.60343  -0.7844401
 O2 0.328884 0.017313 0.10715  -0.5129601
 O2 0.828896 0.017321 0.10714  -0.5129601
 O3 0.086512 0.36424 0.63620  -0.7354551
 O3 0.586518 0.36424 0.63620  -0.7354551
 O3 0.152449 0.235732 0.76059  -0.7354551
 O3 0.652454 0.235732 0.76059  -0.7354551
 O4 0.433947 0.297951 0.70220  -0.9066001
 O4 0.933952 0.297951 0.70220  -0.9066001
 O3 0.413497 0.635751 0.36379  -0.7354551
 O3 0.913502 0.635751 0.36379  -0.7354551
 O3 0.34756 0.764258 0.23940  -0.7354551
 O3 0.847566 0.764258 0.23940  -0.7354551
 O4 0.066064 0.702041 0.29780  -0.9066001
 O4 0.566069 0.702041 0.29780  -0.9066001
