#======================================================================

# CRYSTAL DATA

#----------------------------------------------------------------------

data_VESTA_phase_1


_pd_phase_name                         MOF
_cell_length_a                         12.88900
_cell_length_b                         14.50900
_cell_length_c                         14.52600
_cell_angle_alpha                      78.44800
_cell_angle_beta                       63.44800
_cell_angle_gamma                      63.51200
_symmetry_space_group_name_H-M         "P 1"
_symmetry_Int_Tables_number            1

loop_
_symmetry_equiv_pos_as_xyz
   "x, y, z"

loop_
   _atom_site_label
   _atom_site_fract_x
   _atom_site_fract_y
   _atom_site_fract_z
 _atom_site_charge
 Cu1 0.457792 0.407712 0.47864  0.890799074074
 Cu1 0.345483 0.59131 0.51871  0.890799074074
 Cu1 0.186733 0.021014 0.9084  0.890799074074
 Cu1 0.113834 0.980354 0.09188  0.890799074074
 H1 0.580289 0.725748 0.30262  0.102070324074
 H1 0.744272 0.775772 0.15985  0.102070324074
 H1 0.990363 0.454941 0.0894  0.102070324074
 H1 0.822804 0.40625 0.22862  0.102070324074
 H1 0.049973 0.524907 0.92935  0.102070324074
 H1 0.207628 0.582074 0.78686  0.102070324074
 H1 0.224923 0.740593 0.80499  0.102070324074
 H1 0.934483 0.781336 0.11240  0.102070324074
 H1 0.613108 0.273193 0.69403  0.102070324074
 H1 0.682887 0.224546 0.83707  0.102070324074
 H1 0.535246 0.545994 0.90554  0.102070324074
 H1 0.459625 0.593294 0.76610  0.102070324074
 H1 0.50287 0.477264 0.06618  0.102070324074
 H1 0.573083 0.421328 0.20935  0.102070324074
 H1 0.767021 0.262796 0.19295  0.102070324074
 H1 0.830029 0.219794 0.88525  0.102070324074
 H1 0.134011 0.194887 0.22719  0.102070324074
 H1 0.155077 0.337587 0.27654  0.102070324074
 H1 0.329457 0.408392 0.9556  0.102070324074
 H1 0.301374 0.269202 0.90765  0.102070324074
 H1 0.226471 0.568829 0.02569  0.102070324074
 H1 0.239908 0.712049 0.08227  0.102070324074
 H1 0.276991 0.694057 0.23978  0.102070324074
 H1 0.298916 0.385364 0.28079  0.102070324074
 H1 0.556008 0.8043 0.77459  0.102070324074
 H1 0.769816 0.66132 0.7250  0.102070324074
 H1 0.693431 0.591944 0.04596  0.102070324074
 H1 0.47729 0.731184 0.09417  0.102070324074
 H1 0.822778 0.431743 0.97724  0.102070324074
 H1 0.03744 0.289036 0.92076  0.102070324074
 H1 0.214034 0.306176 0.76162  0.102070324074
 H1 0.965782 0.613552 0.71905  0.102070324074
 C1 0.58862 0.536431 0.35994  0.693229074074
 C2 0.690818 0.562967 0.27489  -0.0437971759259
 C3 0.670407 0.667081 0.25531  -0.0791787384259
 C3 0.763165 0.694539 0.17599  -0.0791787384259
 C2 0.879967 0.619195 0.11446  -0.0437971759259
 C3 0.899859 0.514907 0.13466  -0.0791787384259
 C3 0.806359 0.487088 0.2133  -0.0791787384259
 C2 0.977191 0.650568 0.03044  -0.0437971759259
 C3 0.058059 0.593744 0.9385  -0.0791787384259
 C3 0.146489 0.625746 0.85811  -0.0791787384259
 C3 0.156579 0.714769 0.8676  -0.0791787384259
 C2 0.079491 0.77066 0.95987  -0.0437971759259
 C3 0.990717 0.738392 0.04050  -0.0791787384259
 C1 0.097762 0.860453 0.97433  0.693229074074
 C1 0.488339 0.462315 0.63598  0.693229074074
 C2 0.531898 0.436232 0.72078  -0.0437971759259
 C3 0.596369 0.33233 0.74095  -0.0791787384259
 C3 0.636442 0.305631 0.8204  -0.0791787384259
 C2 0.615181 0.381517 0.88161  -0.0437971759259
 C3 0.55076 0.485585 0.8607  -0.0791787384259
 C3 0.509003 0.512627 0.78184  -0.0791787384259
 C2 0.6586 0.351 0.96602  -0.0437971759259
 C3 0.589244 0.408476 0.05754  -0.0791787384259
 C3 0.627971 0.377133 0.13842  -0.0791787384259
 C3 0.736641 0.28806 0.12988  -0.0791787384259
 C2 0.809169 0.231534 0.0380  -0.0437971759259
 C3 0.770209 0.263245 0.95683  -0.0791787384259
 C1 0.931782 0.14159 0.02443  0.693229074074
 C1 0.198965 0.138087 0.03800  0.693229074074
 C2 0.216261 0.222788 0.06441  -0.0437971759259
 C3 0.176581 0.242217 0.16835  -0.0791787384259
 C3 0.189904 0.32152 0.19543  -0.0791787384259
 C2 0.244663 0.383195 0.11988  -0.0437971759259
 C3 0.284541 0.363072 0.01577  -0.0791787384259
 C3 0.269915 0.284381 0.98834  -0.0791787384259
 C2 0.257384 0.467449 0.15076  -0.0437971759259
 C3 0.244566 0.559657 0.09407  -0.0791787384259
 C3 0.251585 0.640515 0.12573  -0.0791787384259
 C3 0.27206 0.631093 0.21422  -0.0791787384259
 C2 0.289108 0.538527 0.26989  -0.0437971759259
 C3 0.281923 0.457459 0.23800  -0.0791787384259
 C1 0.322676 0.524373 0.35911  0.693229074074
 C1 0.374259 0.862243 0.96365  0.693229074074
 C2 0.502886 0.777074 0.93739  -0.0437971759259
 C3 0.587037 0.75717 0.83340  -0.0791787384259
 C3 0.707167 0.677721 0.80621  -0.0791787384259
 C2 0.748139 0.61642 0.88171  -0.0437971759259
 C3 0.66328 0.636952 0.98587  -0.0791787384259
 C3 0.542037 0.715716 0.01342  -0.0791787384259
 C2 0.876674 0.53228 0.85070  -0.0437971759259
 C3 0.900076 0.440649 0.90817  -0.0791787384259
 C3 0.020409 0.36004 0.87653  -0.0791787384259
 C3 0.12 0.368994 0.78716  -0.0791787384259
 C2 0.099412 0.46095 0.7305  -0.0437971759259
 C3 0.978537 0.541856 0.7625  -0.0791787384259
 C1 0.207927 0.474888 0.64022  0.693229074074
 O1 0.595493 0.444933 0.36406  -0.571300300926
 O1 0.498839 0.609545 0.4227  -0.571300300926
 O1 0.056798 0.88686 0.06752  -0.571300300926
 O1 0.15588 0.902248 0.89386  -0.571300300926
 O1 0.407342 0.553788 0.63196  -0.571300300926
 O1 0.534775 0.389118 0.57340  -0.571300300926
 O1 0.011967 0.115008 0.93145  -0.571300300926
 O1 0.949752 0.099831 0.10531  -0.571300300926
 O1 0.210317 0.134301 0.94642  -0.571300300926
 O1 0.171501 0.075316 0.11105  -0.571300300926
 O1 0.376061 0.431245 0.38559  -0.571300300926
 O1 0.29978 0.605146 0.40036  -0.571300300926
 O1 0.289002 0.866267 0.0549  -0.571300300926
 O1 0.35833 0.925298 0.89052  -0.571300300926
 O1 0.194117 0.568016 0.6133  -0.571300300926
 O1 0.307388 0.39412 0.59846  -0.571300300926
