#======================================================================

# CRYSTAL DATA

#----------------------------------------------------------------------

data_VESTA_phase_1


_pd_phase_name                         MOF
_cell_length_a                         14.29700
_cell_length_b                         18.90200
_cell_length_c                         18.90100
_cell_angle_alpha                      66.13300
_cell_angle_beta                       75.39500
_cell_angle_gamma                      104.60500
_symmetry_space_group_name_H-M         "P 1"
_symmetry_Int_Tables_number            1

loop_
_symmetry_equiv_pos_as_xyz
   "x, y, z"

loop_
   _atom_site_label
   _atom_site_fract_x
   _atom_site_fract_y
   _atom_site_fract_z
 _atom_site_charge
 Cu1 0.549503 0.573806 0.97706  0.878982654321
 Cu1 0.526384 0.977035 0.44904  0.878982654321
 Cu1 0.975536 0.44906 0.57381  0.878982654321
 Cu1 0.450575 0.426186 0.02291  0.878982654321
 Cu1 0.473794 0.022962 0.5508  0.878982654321
 Cu1 0.024469 0.550891 0.42616  0.878982654321
 H1 0.252031 0.543693 0.61359  0.103541404321
 H1 0.539948 0.767757 0.48070  0.103541404321
 H1 0.498637 0.815537 0.35376  0.103541404321
 H1 0.331822 0.727943 0.35763  0.103541404321
 H1 0.369637 0.492856 0.66760  0.103541404321
 H1 0.39825 0.447061 0.80084  0.103541404321
 H1 0.509082 0.70349 0.74906  0.103541404321
 H1 0.477192 0.749545 0.61727  0.103541404321
 H1 0.86561 0.613639 0.84260  0.103541404321
 H1 0.02086 0.480768 0.75158  0.103541404321
 H1 0.852566 0.353859 0.83057  0.103541404321
 H1 0.689483 0.357745 0.91408  0.103541404321
 H1 0.037424 0.667647 0.8395  0.103541404321
 H1 0.199473 0.800739 0.7521  0.103541404321
 H1 0.258366 0.749006 0.54750  0.103541404321
 H1 0.094533 0.617324 0.63317  0.103541404321
 H1 0.708394 0.842561 0.54367  0.103541404321
 H1 0.772236 0.751491 0.76776  0.103541404321
 H1 0.683113 0.830699 0.81547  0.103541404321
 H1 0.603859 0.914341 0.72785  0.103541404321
 H1 0.877065 0.839669 0.49285  0.103541404321
 H1 0.951642 0.752361 0.44693  0.103541404321
 H1 0.805995 0.547543 0.70329  0.103541404321
 H1 0.727913 0.633164 0.74947  0.103541404321
 H1 0.747961 0.456271 0.38645  0.103541404321
 H1 0.460048 0.232208 0.51927  0.103541404321
 H1 0.501337 0.18439 0.6462  0.103541404321
 H1 0.668141 0.271958 0.64239  0.103541404321
 H1 0.630372 0.507121 0.33242  0.103541404321
 H1 0.601788 0.552942 0.19917  0.103541404321
 H1 0.491002 0.29653 0.25089  0.103541404321
 H1 0.522853 0.250448 0.38270  0.103541404321
 H1 0.134421 0.386405 0.15732  0.103541404321
 H1 0.979283 0.51933 0.24834  0.103541404321
 H1 0.147613 0.64621 0.16934  0.103541404321
 H1 0.310658 0.642273 0.08585  0.103541404321
 H1 0.96277 0.33245 0.1603  0.103541404321
 H1 0.800792 0.199303 0.24764  0.103541404321
 H1 0.741661 0.250984 0.45236  0.103541404321
 H1 0.905425 0.382719 0.36672  0.103541404321
 H1 0.29166 0.157339 0.45635  0.103541404321
 H1 0.227769 0.248446 0.23227  0.103541404321
 H1 0.316932 0.169297 0.18450  0.103541404321
 H1 0.396277 0.085692 0.27206  0.103541404321
 H1 0.122938 0.16027 0.507  0.103541404321
 H1 0.048297 0.247586 0.55305  0.103541404321
 H1 0.193915 0.452332 0.2966  0.103541404321
 H1 0.272036 0.366703 0.25054  0.103541404321
 C1 0.180485 0.580241 0.49008  0.681137654321
 C2 0.283074 0.630157 0.48568  -0.0445265123457
 C3 0.307807 0.602565 0.55653  -0.0793377623457
 C2 0.399764 0.651756 0.55607  -0.0445265123457
 C3 0.46802 0.72884 0.48208  -0.0793377623457
 C3 0.444673 0.755736 0.41074  -0.0793377623457
 C3 0.352233 0.707079 0.41218  -0.0793377623457
 C2 0.42103 0.624434 0.63330  -0.0445265123457
 C3 0.398716 0.538996 0.68598  -0.0793377623457
 C3 0.415236 0.513132 0.76015  -0.0793377623457
 C2 0.455194 0.572462 0.78314  -0.0445265123457
 C3 0.478604 0.657882 0.73064  -0.0793377623457
 C3 0.461411 0.683428 0.65673  -0.0793377623457
 C1 0.472194 0.545128 0.86275  0.681137654321
 C1 0.670579 0.490197 0.92939  0.681137654321
 C2 0.768762 0.485763 0.88392  -0.0445265123457
 C3 0.864361 0.5566 0.84076  -0.0793377623457
 C2 0.95591 0.556142 0.79211  -0.0445265123457
 C3 0.95023 0.482167 0.78900  -0.0793377623457
 C3 0.85554 0.410829 0.83340  -0.0793377623457
 C3 0.764446 0.412295 0.88046  -0.0793377623457
 C2 0.054473 0.633324 0.74228  -0.0445265123457
 C3 0.0849 0.685976 0.77506  -0.0793377623457
 C3 0.175678 0.760093 0.72678  -0.0793377623457
 C2 0.238634 0.783043 0.64448  -0.0445265123457
 C3 0.20945 0.730601 0.61152  -0.0793377623457
 C3 0.118275 0.656758 0.65985  -0.0793377623457
 C1 0.335236 0.862638 0.59213  0.681137654321
 C1 0.60028 0.929545 0.58021  0.681137654321
 C2 0.652891 0.883991 0.63014  -0.0445265123457
 C3 0.705273 0.840765 0.60254  -0.0793377623457
 C2 0.748112 0.792123 0.65173  -0.0445265123457
 C3 0.739181 0.788983 0.72885  -0.0793377623457
 C3 0.68894 0.833457 0.75570  -0.0793377623457
 C3 0.645161 0.880646 0.70702  -0.0793377623457
 C2 0.796835 0.742288 0.6244  -0.0445265123457
 C3 0.86 0.775133 0.5389  -0.0793377623457
 C3 0.90253 0.726924 0.51301  -0.0793377623457
 C2 0.883118 0.644576 0.57229  -0.0445265123457
 C3 0.821113 0.611583 0.6577  -0.0793377623457
 C3 0.778246 0.659856 0.68334  -0.0793377623457
 C1 0.927375 0.592283 0.54494  0.681137654321
 C1 0.819494 0.419689 0.50995  0.681137654321
 C2 0.716911 0.369771 0.51435  -0.0445265123457
 C3 0.69218 0.397391 0.443  -0.0793377623457
 C2 0.60023 0.348217 0.44393  -0.0445265123457
 C3 0.531983 0.271108 0.51790  -0.0793377623457
 C3 0.555301 0.244204 0.58926  -0.0793377623457
 C3 0.647737 0.292845 0.58784  -0.0793377623457
 C2 0.578961 0.375542 0.36671  -0.0445265123457
 C3 0.601329 0.460991 0.31402  -0.0793377623457
 C3 0.584782 0.486865 0.23986  -0.0793377623457
 C2 0.544874 0.427553 0.2168  -0.0445265123457
 C3 0.521445 0.342126 0.26933  -0.0793377623457
 C3 0.538657 0.316571 0.34323  -0.0793377623457
 C1 0.52791 0.454884 0.1372  0.681137654321
 C1 0.329488 0.509792 0.07057  0.681137654321
 C2 0.231324 0.514267 0.11601  -0.0445265123457
 C3 0.13571 0.443448 0.1591  -0.0793377623457
 C2 0.044166 0.44393 0.20780  -0.0445265123457
 C3 0.049882 0.517914 0.21090  -0.0793377623457
 C3 0.144601 0.589225 0.16653  -0.0793377623457
 C3 0.235674 0.587743 0.11947  -0.0793377623457
 C2 0.945624 0.366728 0.25761  -0.0445265123457
 C3 0.915233 0.314113 0.22479  -0.0793377623457
 C3 0.824532 0.239935 0.27307  -0.0793377623457
 C2 0.76152 0.216972 0.35537  -0.0445265123457
 C3 0.790635 0.269405 0.38835  -0.0793377623457
 C3 0.881734 0.343306 0.34002  -0.0793377623457
 C1 0.664938 0.137361 0.40769  0.681137654321
 C1 0.399881 0.070454 0.41970  0.681137654321
 C2 0.347201 0.115974 0.36982  -0.0445265123457
 C3 0.29479 0.159166 0.39746  -0.0793377623457
 C2 0.251941 0.207813 0.34828  -0.0445265123457
 C3 0.260812 0.210932 0.27117  -0.0793377623457
 C3 0.311131 0.166529 0.2442  -0.0793377623457
 C3 0.354959 0.119364 0.29292  -0.0793377623457
 C2 0.203189 0.257621 0.3756  -0.0445265123457
 C3 0.139955 0.224784 0.46107  -0.0793377623457
 C3 0.097445 0.273019 0.48698  -0.0793377623457
 C2 0.116826 0.355349 0.42767  -0.0445265123457
 C3 0.178846 0.388315 0.34224  -0.0793377623457
 C3 0.22168 0.340013 0.31666  -0.0793377623457
 C1 0.072569 0.407653 0.4550  0.681137654321
 O1 0.117043 0.514088 0.56109  -0.564195262346
 O1 0.162709 0.608305 0.42309  -0.564195262346
 O1 0.432736 0.465706 0.91536  -0.564195262346
 O1 0.52536 0.603379 0.87273  -0.564195262346
 O1 0.678276 0.561177 0.92464  -0.564195262346
 O1 0.585723 0.423283 0.9681  -0.564195262346
 O1 0.348735 0.915182 0.61900  -0.564195262346
 O1 0.398051 0.872706 0.5237  -0.564195262346
 O1 0.602841 0.924658 0.51410  -0.564195262346
 O1 0.554658 0.968627 0.608  -0.564195262346
 O1 0.967728 0.61926 0.46549  -0.564195262346
 O1 0.921929 0.523897 0.60322  -0.564195262346
 O1 0.882929 0.48584 0.4389  -0.564195262346
 O1 0.837267 0.391626 0.57694  -0.564195262346
 O1 0.567064 0.534321 0.08472  -0.564195262346
 O1 0.474994 0.396618 0.12712  -0.564195262346
 O1 0.321831 0.438732 0.07555  -0.564195262346
 O1 0.414304 0.576763 0.03156  -0.564195262346
 O1 0.651381 0.084852 0.38078  -0.564195262346
 O1 0.602226 0.127209 0.476  -0.564195262346
 O1 0.397506 0.075473 0.48572  -0.564195262346
 O1 0.44537 0.031272 0.39178  -0.564195262346
 O1 0.032278 0.380709 0.53445  -0.564195262346
 O1 0.078082 0.476067 0.39672  -0.564195262346
