#======================================================================

# CRYSTAL DATA

#----------------------------------------------------------------------

data_VESTA_phase_1


_pd_phase_name                         MOF
_cell_length_a                         17.26700
_cell_length_b                         17.30200
_cell_length_c                         17.29400
_cell_angle_alpha                      97.82600
_cell_angle_beta                       115.50100
_cell_angle_gamma                      115.50600
_symmetry_space_group_name_H-M         "P 1"
_symmetry_Int_Tables_number            1

loop_
_symmetry_equiv_pos_as_xyz
   "x, y, z"

loop_
   _atom_site_label
   _atom_site_fract_x
   _atom_site_fract_y
   _atom_site_fract_z
 _atom_site_charge
 Zn1 0.382944 0.783724 0.8467  0.898355927419
 Zn1 0.883117 0.037217 0.59831  0.898355927419
 Zn1 0.116792 0.962713 0.40159  0.898355927419
 Zn1 0.616965 0.216199 0.15313  0.898355927419
 Zn1 0.062188 0.847192 0.96304  0.898355927419
 Zn1 0.561767 0.598396 0.2159  0.898355927419
 Zn1 0.438186 0.401616 0.78395  0.898355927419
 Zn1 0.937791 0.152823 0.03690  0.898355927419
 H1 0.334954 0.886691 0.97183  0.111228114919
 H1 0.219956 0.809322 0.68552  0.111228114919
 H1 0.096142 0.881549 0.63927  0.111228114919
 H1 0.111488 0.987961 0.80872  0.111228114919
 H1 0.530916 0.99908 0.8871  0.111228114919
 H1 0.46842 0.754386 0.71502  0.111228114919
 H1 0.617529 0.838091 0.67243  0.111228114919
 H1 0.732419 0.052776 0.75105  0.111228114919
 H2 0.21301 0.940819 0.90818  0.294472177419
 H2 0.663944 0.05146 0.84282  0.294472177419
 H1 0.831861 0.860885 0.44855  0.111228114919
 H1 0.723698 0.037691 0.4097  0.111228114919
 H1 0.600708 0.960597 0.21444  0.111228114919
 H1 0.607976 0.799668 0.1241  0.111228114919
 H1 0.030385 0.145013 0.52977  0.111228114919
 H1 0.967144 0.253213 0.71269  0.111228114919
 H1 0.115972 0.444358 0.77816  0.111228114919
 H1 0.232509 0.481616 0.67926  0.111228114919
 H2 0.711709 0.803711 0.27296  0.294472177419
 H2 0.163153 0.321794 0.6106  0.294472177419
 H1 0.168073 0.139047 0.55136  0.111228114919
 H1 0.276229 0.96224 0.5901  0.111228114919
 H1 0.399452 0.039505 0.78548  0.111228114919
 H1 0.391967 0.200279 0.87571  0.111228114919
 H1 0.969541 0.854962 0.47009  0.111228114919
 H1 0.032898 0.746672 0.28732  0.111228114919
 H1 0.883814 0.5556 0.22162  0.111228114919
 H1 0.767473 0.518321 0.32069  0.111228114919
 H2 0.288254 0.196236 0.72693  0.294472177419
 H2 0.83677 0.678186 0.38923  0.294472177419
 H1 0.665048 0.113276 0.02812  0.111228114919
 H1 0.780026 0.190728 0.31443  0.111228114919
 H1 0.903928 0.118547 0.36074  0.111228114919
 H1 0.888406 0.011966 0.19125  0.111228114919
 H1 0.46903 0.00094 0.11273  0.111228114919
 H1 0.531595 0.245633 0.2849  0.111228114919
 H1 0.382425 0.161915 0.32750  0.111228114919
 H1 0.267532 0.947232 0.24890  0.111228114919
 H2 0.786984 0.059164 0.0918  0.294472177419
 H2 0.336042 0.948566 0.1571  0.294472177419
 H1 0.08749 0.971098 0.13923  0.111228114919
 H1 0.87318 0.687041 0.96265  0.111228114919
 H1 0.754392 0.640663 0.03983  0.111228114919
 H1 0.823693 0.808042 0.20036  0.111228114919
 H1 0.8866 0.8871 0.85504  0.111228114919
 H1 0.960141 0.714453 0.7469  0.111228114919
 H1 0.834225 0.671853 0.55546  0.111228114919
 H1 0.697417 0.750399 0.51837  0.111228114919
 H2 0.968601 0.907645 0.19642  0.294472177419
 H2 0.790237 0.842486 0.67807  0.294472177419
 H1 0.585205 0.448541 0.11307  0.111228114919
 H1 0.375426 0.409913 0.19048  0.111228114919
 H1 0.257911 0.214655 0.11875  0.111228114919
 H1 0.321233 0.124251 0.01181  0.111228114919
 H1 0.385722 0.529905 0.00054  0.111228114919
 H1 0.460106 0.713765 0.24535  0.111228114919
 H1 0.33436 0.779482 0.16162  0.111228114919
 H1 0.198001 0.679814 0.94691  0.111228114919
 H2 0.468294 0.27306 0.05924  0.294472177419
 H2 0.289646 0.611054 0.94806  0.294472177419
 H1 0.414846 0.551514 0.88693  0.111228114919
 H1 0.624498 0.590071 0.8093  0.111228114919
 H1 0.742134 0.785345 0.88122  0.111228114919
 H1 0.678737 0.875748 0.98807  0.111228114919
 H1 0.614314 0.470187 0.9994  0.111228114919
 H1 0.539694 0.286107 0.7546  0.111228114919
 H1 0.66556 0.220534 0.83835  0.111228114919
 H1 0.801968 0.320161 0.05307  0.111228114919
 H2 0.531807 0.727004 0.94077  0.294472177419
 H2 0.710331 0.388985 0.05195  0.294472177419
 H1 0.912436 0.028937 0.86072  0.111228114919
 H1 0.126889 0.312971 0.03733  0.111228114919
 H1 0.245456 0.359359 0.9599  0.111228114919
 H1 0.176241 0.19197 0.79952  0.111228114919
 H1 0.113352 0.112881 0.14490  0.111228114919
 H1 0.039843 0.285548 0.25303  0.111228114919
 H1 0.165744 0.328151 0.44447  0.111228114919
 H1 0.302574 0.249621 0.48154  0.111228114919
 H2 0.031326 0.092347 0.80350  0.294472177419
 H2 0.209751 0.157524 0.32188  0.294472177419
 C1 0.292451 0.878383 0.90036  0.251035302419
 C2 0.232012 0.839357 0.7520  0.00107967741935
 C3 0.190622 0.88603 0.77272  0.0637384274194
 C4 0.122772 0.908405 0.7127  -0.165096572581
 C4 0.088859 0.958673 0.73697  -0.165096572581
 C5 0.016615 0.973532 0.66539  0.687782177419
 C1 0.536145 0.952951 0.84302  0.251035302419
 C2 0.505261 0.828178 0.75270  0.00107967741935
 C3 0.584588 0.903996 0.7575  0.0637384274194
 C4 0.63827 0.906096 0.71260  -0.165096572581
 C4 0.708814 0.982704 0.71354  -0.165096572581
 C5 0.757141 0.976063 0.66231  0.687782177419
 C1 0.790967 0.891129 0.41420  0.251035302419
 C2 0.734073 0.981781 0.39216  0.00107967741935
 C3 0.691697 0.918831 0.30452  0.0637384274194
 C4 0.624576 0.911478 0.21440  -0.165096572581
 C4 0.58823 0.851184 0.13056  -0.165096572581
 C5 0.516929 0.851159 0.04345  0.687782177419
 C1 0.035223 0.193979 0.58115  0.251035302419
 C2 0.004057 0.252676 0.67550  0.00107967741935
 C3 0.083444 0.327112 0.67902  0.0637384274194
 C4 0.137157 0.42531 0.73099  -0.165096572581
 C4 0.208307 0.495004 0.72552  -0.165096572581
 C5 0.256629 0.594054 0.78113  0.687782177419
 C1 0.208967 0.108803 0.58570  0.251035302419
 C2 0.26588 0.018167 0.60774  0.00107967741935
 C3 0.308303 0.081145 0.69538  0.0637384274194
 C4 0.375489 0.088551 0.78550  -0.165096572581
 C4 0.411755 0.148793 0.86934  -0.165096572581
 C5 0.483023 0.148817 0.95647  0.687782177419
 C1 0.964729 0.805979 0.41874  0.251035302419
 C2 0.99593 0.747251 0.32445  0.00107967741935
 C3 0.916506 0.672837 0.32091  0.0637384274194
 C4 0.862724 0.574642 0.26888  -0.165096572581
 C4 0.791589 0.504939 0.27435  -0.165096572581
 C5 0.743317 0.405908 0.21874  0.687782177419
 C1 0.707534 0.121589 0.09959  0.251035302419
 C2 0.76798 0.160675 0.2478  0.00107967741935
 C3 0.809378 0.113995 0.22727  0.0637384274194
 C4 0.877252 0.091644 0.28727  -0.165096572581
 C4 0.911055 0.041272 0.26301  -0.165096572581
 C5 0.983333 0.026436 0.33457  0.687782177419
 C1 0.463814 0.047064 0.15692  0.251035302419
 C2 0.494733 0.171844 0.24726  0.00107967741935
 C3 0.415407 0.096028 0.24242  0.0637384274194
 C4 0.361709 0.093917 0.28735  -0.165096572581
 C4 0.291156 0.017313 0.28640  -0.165096572581
 C5 0.242855 0.023984 0.33765  0.687782177419
 C1 0.023086 0.90011 0.10902  0.251035302419
 C2 0.911068 0.753007 0.01849  0.00107967741935
 C3 0.885908 0.773211 0.08139  0.0637384274194
 C4 0.803108 0.713403 0.0888  -0.165096572581
 C4 0.779015 0.737035 0.14899  -0.165096572581
 C5 0.691878 0.665699 0.14898  0.687782177419
 C1 0.888816 0.842755 0.80605  0.251035302419
 C2 0.923796 0.752199 0.74740  0.00107967741935
 C3 0.852793 0.756998 0.67285  0.0637384274194
 C4 0.806061 0.712016 0.5745  -0.165096572581
 C4 0.730391 0.712958 0.50488  -0.165096572581
 C5 0.686424 0.661777 0.40574  0.687782177419
 C1 0.52198 0.414207 0.12145  0.251035302419
 C2 0.412312 0.392284 0.160  0.00107967741935
 C3 0.386804 0.304645 0.11395  0.0637384274194
 C4 0.304596 0.214598 0.09170  -0.165096572581
 C4 0.27872 0.130759 0.04132  -0.165096572581
 C5 0.192449 0.043802 0.02666  0.687782177419
 C1 0.388068 0.581567 0.04669  0.251035302419
 C2 0.42359 0.676419 0.17153  0.00107967741935
 C3 0.352632 0.679903 0.09565  0.0637384274194
 C4 0.306227 0.732044 0.09359  -0.165096572581
 C4 0.230846 0.726358 0.01703  -0.165096572581
 C5 0.186872 0.781844 0.02383  0.687782177419
 C1 0.478057 0.585834 0.87853  0.251035302419
 C2 0.587661 0.607719 0.83942  0.00107967741935
 C3 0.613233 0.695369 0.88601  0.0637384274194
 C4 0.695451 0.78541 0.90827  -0.165096572581
 C4 0.721262 0.869247 0.95857  -0.165096572581
 C5 0.807543 0.956204 0.97325  0.687782177419
 C1 0.611915 0.418481 0.9533  0.251035302419
 C2 0.576283 0.323523 0.82847  0.00107967741935
 C3 0.647283 0.320084 0.90436  0.0637384274194
 C4 0.693701 0.267956 0.90639  -0.165096572581
 C4 0.769095 0.273627 0.98293  -0.165096572581
 C5 0.813082 0.218164 0.97609  0.687782177419
 C1 0.976872 0.099909 0.8909  0.251035302419
 C2 0.088945 0.247005 0.98147  0.00107967741935
 C3 0.114038 0.226786 0.91852  0.0637384274194
 C4 0.196792 0.286603 0.91103  -0.165096572581
 C4 0.220888 0.262981 0.85087  -0.165096572581
 C5 0.308071 0.334322 0.85094  0.687782177419
 C1 0.111144 0.157231 0.19389  0.251035302419
 C2 0.076186 0.2478 0.25255  0.00107967741935
 C3 0.147194 0.243011 0.32710  0.0637384274194
 C4 0.193928 0.288 0.42538  -0.165096572581
 C4 0.269605 0.287057 0.49506  -0.165096572581
 C5 0.313578 0.338228 0.59420  0.687782177419
 N1 0.2954 0.835443 0.83199  -0.399556572581
 N2 0.231121 0.909899 0.86771  -0.218787822581
 N1 0.475735 0.859352 0.80570  -0.399556572581
 N2 0.60193 0.982029 0.81526  -0.218787822581
 N1 0.79581 0.964056 0.45958  -0.399556572581
 N2 0.729925 0.862522 0.32153  -0.218787822581
 N1 0.974646 0.170635 0.61449  -0.399556572581
 N2 0.100918 0.287223 0.61800  -0.218787822581
 N1 0.204104 0.035866 0.54032  -0.399556572581
 N2 0.27005 0.137439 0.67837  -0.218787822581
 N1 0.025347 0.829307 0.3854  -0.399556572581
 N2 0.899007 0.712741 0.38189  -0.218787822581
 N1 0.704573 0.164544 0.16794  -0.399556572581
 N2 0.768878 0.090093 0.13227  -0.218787822581
 N1 0.524239 0.140661 0.19424  -0.399556572581
 N2 0.398043 0.017988 0.18469  -0.218787822581
 N1 0.996088 0.832438 0.03617  -0.399556572581
 N2 0.958794 0.867466 0.13760  -0.218787822581
 N1 0.945282 0.805363 0.82948  -0.399556572581
 N2 0.832135 0.814852 0.71272  -0.218787822581
 N1 0.49605 0.459638 0.16430  -0.399556572581
 N2 0.458195 0.321587 0.09007  -0.218787822581
 N1 0.444744 0.615132 0.14036  -0.399556572581
 N2 0.331607 0.61859 0.01758  -0.218787822581
 N1 0.503922 0.540375 0.83562  -0.399556572581
 N2 0.541882 0.678454 0.90994  -0.218787822581
 N1 0.555171 0.384849 0.85963  -0.399556572581
 N2 0.668362 0.38145 0.98242  -0.218787822581
 N1 0.003924 0.167588 0.96381  -0.399556572581
 N2 0.041136 0.132531 0.86232  -0.218787822581
 N1 0.054671 0.194616 0.17046  -0.399556572581
 N2 0.167846 0.185153 0.2872  -0.218787822581
 O1 0.988574 0.023574 0.69670  -0.631434072581
 O2 0.984126 0.940509 0.58120  -0.612226572581
 O1 0.811954 0.053188 0.65794  -0.631434072581
 O2 0.745682 0.900153 0.62573  -0.612226572581
 O1 0.486721 0.789597 0.96588  -0.631434072581
 O2 0.487096 0.905221 0.04354  -0.612226572581
 O1 0.312056 0.653639 0.75944  -0.631434072581
 O2 0.244393 0.618304 0.84535  -0.612226572581
 O1 0.513357 0.210499 0.03402  -0.631434072581
 O2 0.512763 0.094678 0.9564  -0.612226572581
 O1 0.68787 0.346303 0.24039  -0.631434072581
 O2 0.755528 0.381703 0.15448  -0.612226572581
 O1 0.011472 0.976499 0.30326  -0.631434072581
 O2 0.015717 0.05933 0.41875  -0.612226572581
 O1 0.188036 0.946862 0.34202  -0.631434072581
 O2 0.254349 0.099904 0.3742  -0.612226572581
 O1 0.674776 0.69667 0.20994  -0.631434072581
 O2 0.638707 0.582037 0.09529  -0.612226572581
 O1 0.604833 0.657303 0.34635  -0.631434072581
 O2 0.726428 0.625427 0.38124  -0.612226572581
 O1 0.174252 0.966117 0.97682  -0.631434072581
 O2 0.140933 0.044104 0.05960  -0.612226572581
 O1 0.10555 0.759958 0.94681  -0.631434072581
 O2 0.226491 0.846287 0.09977  -0.612226572581
 O1 0.825714 0.033881 0.02307  -0.631434072581
 O2 0.859062 0.95591 0.94032  -0.612226572581
 O1 0.894448 0.240074 0.05309  -0.631434072581
 O2 0.773441 0.153718 0.90015  -0.612226572581
 O1 0.325129 0.303366 0.78994  -0.631434072581
 O2 0.36124 0.417979 0.90465  -0.612226572581
 O1 0.395159 0.342677 0.65358  -0.631434072581
 O2 0.273591 0.374576 0.61873  -0.612226572581
