#======================================================================

# CRYSTAL DATA

#----------------------------------------------------------------------

data_VESTA_phase_1


_pd_phase_name                         MOF
_cell_length_a                         14.13200
_cell_length_b                         18.09300
_cell_length_c                         19.55300
_cell_angle_alpha                      98.82700
_cell_angle_beta                       90.06400
_cell_angle_gamma                      90.02700
_symmetry_space_group_name_H-M         "P 1"
_symmetry_Int_Tables_number            1

loop_
_symmetry_equiv_pos_as_xyz
   "x, y, z"

loop_
   _atom_site_label
   _atom_site_fract_x
   _atom_site_fract_y
   _atom_site_fract_z
 _atom_site_charge
 Cd1 0.208839 0.816337 0.53697  1.0130784375
 Cd2 0.192995 0.664853 0.3502  1.1304784375
 Cd3 0.126042 0.476324 0.98006  1.0970084375
 Cd4 0.264484 0.600452 0.16113  1.0400184375
 Cd1 0.208454 0.183571 0.96324  1.0130784375
 Cd2 0.193116 0.335109 0.14973  1.1304784375
 Cd3 0.126227 0.523797 0.51994  1.0970084375
 Cd4 0.264187 0.399537 0.33889  1.0400184375
 Cd1 0.79114 0.183642 0.4629  1.0130784375
 Cd2 0.807024 0.335099 0.64965  1.1304784375
 Cd3 0.873994 0.523733 0.02000  1.0970084375
 Cd4 0.735562 0.399605 0.83886  1.0400184375
 Cd1 0.791582 0.816447 0.03671  1.0130784375
 Cd2 0.806959 0.66488 0.8502  1.1304784375
 Cd3 0.873801 0.476302 0.4801  1.0970084375
 Cd4 0.735783 0.600515 0.66114  1.0400184375
 H1 0.022595 0.923903 0.36497  0.120908892045
 H1 0.948948 0.928221 0.24869  0.120908892045
 H1 0.934545 0.690137 0.2116  0.120908892045
 H1 0.891524 0.631299 0.39381  0.120908892045
 H1 0.951829 0.71155 0.43438  0.120908892045
 H1 0.921102 0.596922 0.26237  0.120908892045
 H1 0.004132 0.549967 0.30869  0.120908892045
 H1 0.349832 0.639422 0.90565  0.120908892045
 H1 0.485855 0.728012 0.91779  0.120908892045
 H1 0.563325 0.655482 0.10819  0.120908892045
 H1 0.473994 0.442084 0.09337  0.120908892045
 H1 0.397926 0.464135 0.02876  0.120908892045
 H1 0.558178 0.574521 0.16198  0.120908892045
 H1 0.485481 0.508871 0.19232  0.120908892045
 H1 0.091026 0.70717 0.10218  0.120908892045
 H1 0.077136 0.827752 0.05848  0.120908892045
 H1 0.378345 0.858685 0.09523  0.120908892045
 H1 0.377823 0.739675 0.14299  0.120908892045
 H1 0.104061 0.900807 0.97722  0.120908892045
 H1 0.110102 0.023461 0.93415  0.120908892045
 H1 0.338224 0.095974 0.05899  0.120908892045
 H1 0.342791 0.976918 0.10895  0.120908892045
 H1 0.022517 0.075954 0.13551  0.120908892045
 H1 0.948272 0.072005 0.25155  0.120908892045
 H1 0.933299 0.310048 0.28765  0.120908892045
 H1 0.891366 0.368051 0.10536  0.120908892045
 H1 0.95214 0.288025 0.06501  0.120908892045
 H1 0.921018 0.403145 0.23686  0.120908892045
 H1 0.00435 0.449864 0.19066  0.120908892045
 H1 0.349919 0.360539 0.59433  0.120908892045
 H1 0.485773 0.271948 0.58222  0.120908892045
 H1 0.562916 0.344541 0.3918  0.120908892045
 H1 0.474012 0.557905 0.40666  0.120908892045
 H1 0.397976 0.535906 0.47122  0.120908892045
 H1 0.557836 0.425534 0.33814  0.120908892045
 H1 0.48511 0.491112 0.30771  0.120908892045
 H1 0.090753 0.292749 0.39782  0.120908892045
 H1 0.076852 0.172093 0.44151  0.120908892045
 H1 0.377921 0.141272 0.40481  0.120908892045
 H1 0.377369 0.260275 0.35706  0.120908892045
 H1 0.103935 0.098996 0.52276  0.120908892045
 H1 0.110182 0.97638 0.56592  0.120908892045
 H1 0.338017 0.904084 0.441  0.120908892045
 H1 0.342352 0.02308 0.39114  0.120908892045
 H1 0.977466 0.076048 0.63  0.120908892045
 H1 0.051109 0.07177 0.75128  0.120908892045
 H1 0.065444 0.309858 0.78831  0.120908892045
 H1 0.108492 0.368601 0.6061  0.120908892045
 H1 0.048097 0.288401 0.56552  0.120908892045
 H1 0.078879 0.403053 0.73754  0.120908892045
 H1 0.995837 0.44999 0.69122  0.120908892045
 H1 0.650216 0.36063 0.09432  0.120908892045
 H1 0.514228 0.272012 0.08218  0.120908892045
 H1 0.436712 0.344548 0.89179  0.120908892045
 H1 0.526003 0.557967 0.90655  0.120908892045
 H1 0.602055 0.535947 0.97119  0.120908892045
 H1 0.441827 0.425475 0.83799  0.120908892045
 H1 0.514481 0.491144 0.80765  0.120908892045
 H1 0.909008 0.292872 0.89784  0.120908892045
 H1 0.922893 0.172263 0.94149  0.120908892045
 H1 0.621688 0.141341 0.90471  0.120908892045
 H1 0.622211 0.260388 0.85702  0.120908892045
 H1 0.895979 0.099199 0.02272  0.120908892045
 H1 0.88994 0.976548 0.06579  0.120908892045
 H1 0.661791 0.904046 0.94097  0.120908892045
 H1 0.657217 0.023102 0.89101  0.120908892045
 H1 0.97754 0.924026 0.86446  0.120908892045
 H1 0.051779 0.927975 0.74842  0.120908892045
 H1 0.066765 0.689934 0.71233  0.120908892045
 H1 0.10867 0.631888 0.8946  0.120908892045
 H1 0.047952 0.711944 0.93495  0.120908892045
 H1 0.079031 0.596839 0.76310  0.120908892045
 H1 0.995702 0.550111 0.80929  0.120908892045
 H1 0.650068 0.63949 0.40564  0.120908892045
 H1 0.514185 0.728059 0.41774  0.120908892045
 H1 0.437064 0.655475 0.60808  0.120908892045
 H1 0.526042 0.442099 0.59325  0.120908892045
 H1 0.602097 0.464148 0.52873  0.120908892045
 H1 0.44214 0.574451 0.66179  0.120908892045
 H1 0.51486 0.508869 0.69222  0.120908892045
 H1 0.909253 0.70728 0.60222  0.120908892045
 H1 0.923145 0.827895 0.5584  0.120908892045
 H1 0.622082 0.858742 0.59517  0.120908892045
 H1 0.622647 0.739784 0.64300  0.120908892045
 H1 0.896043 0.900972 0.4771  0.120908892045
 H1 0.889779 0.023576 0.43398  0.120908892045
 H1 0.661968 0.095895 0.55873  0.120908892045
 H1 0.657657 0.976918 0.60881  0.120908892045
 C1 0.07198 0.807054 0.42149  0.6712821875
 C2 0.019923 0.804066 0.35427  -0.0611115625
 C3 0.002449 0.872541 0.33133  -0.1332300625
 C3 0.962911 0.875194 0.26657  -0.1332300625
 C2 0.941076 0.80843 0.22336  -0.0611115625
 C1 0.899943 0.808499 0.1523  0.6712821875
 C3 0.954703 0.740031 0.24692  -0.1332300625
 C4 0.992358 0.736869 0.31248  0.1563084375
 C5 0.962379 0.656821 0.40211  -0.2389215625
 C1 0.021356 0.610996 0.44527  0.6712821875
 C5 0.993435 0.599955 0.2837  -0.2389215625
 C1 0.064921 0.594185 0.22465  0.6712821875
 C1 0.287059 0.554839 0.99280  0.6712821875
 C2 0.375881 0.598737 0.00171  -0.0611115625
 C3 0.395151 0.644443 0.95121  -0.1332300625
 C3 0.470251 0.6945 0.95803  -0.1332300625
 C2 0.529834 0.697975 0.0156  -0.0611115625
 C1 0.616648 0.747007 0.02110  0.6712821875
 C3 0.513236 0.651798 0.0656  -0.1332300625
 C4 0.437597 0.601044 0.06017  0.1563084375
 C5 0.40951 0.473361 0.08482  -0.2389215625
 C1 0.329332 0.435854 0.11822  0.6712821875
 C5 0.484124 0.563265 0.17398  -0.2389215625
 C1 0.453283 0.620277 0.23739  0.6712821875
 C6 0.153339 0.74239 0.1001  0.1771609375
 C3 0.146043 0.810285 0.07533  -0.1332300625
 C2 0.227165 0.854916 0.07301  -0.0611115625
 C3 0.312195 0.828215 0.09720  -0.1332300625
 C6 0.313183 0.760697 0.12251  0.1771609375
 C3 0.158004 0.941718 0.99689  -0.1332300625
 C6 0.160387 0.0 0.97271  0.1771609375
 C6 0.288222 0.050735 0.04278  0.1771609375
 C3 0.290479 0.983899 0.06951  -0.1332300625
 C2 0.224729 0.927239 0.04646  -0.0611115625
 C1 0.072013 0.192652 0.07872  0.6712821875
 C2 0.019762 0.195763 0.14579  -0.0611115625
 C3 0.002143 0.127391 0.16888  -0.1332300625
 C3 0.962277 0.124946 0.23351  -0.1332300625
 C2 0.939999 0.191806 0.27636  -0.0611115625
 C1 0.898482 0.191911 0.34718  0.6712821875
 C3 0.953794 0.260087 0.25262  -0.1332300625
 C4 0.991934 0.26304 0.18723  0.1563084375
 C5 0.962347 0.342796 0.09733  -0.2389215625
 C1 0.021312 0.388817 0.05440  0.6712821875
 C5 0.993391 0.399963 0.21571  -0.2389215625
 C1 0.064793 0.405756 0.27496  0.6712821875
 C1 0.287049 0.445191 0.50718  0.6712821875
 C2 0.375785 0.401272 0.49830  -0.0611115625
 C3 0.395101 0.355523 0.54877  -0.1332300625
 C3 0.470131 0.305469 0.54197  -0.1332300625
 C2 0.529582 0.302017 0.484  -0.0611115625
 C1 0.616363 0.253026 0.47891  0.6712821875
 C3 0.512924 0.348215 0.4344  -0.1332300625
 C4 0.437371 0.398966 0.43986  0.1563084375
 C5 0.409472 0.526662 0.41517  -0.2389215625
 C1 0.329321 0.564166 0.38168  0.6712821875
 C5 0.483767 0.436732 0.32607  -0.2389215625
 C1 0.452793 0.379683 0.26265  0.6712821875
 C6 0.153005 0.257499 0.39983  0.1771609375
 C3 0.145711 0.189597 0.42466  -0.1332300625
 C2 0.226805 0.144981 0.42699  -0.0611115625
 C3 0.311786 0.171719 0.40282  -0.1332300625
 C6 0.312761 0.239239 0.37751  0.1771609375
 C3 0.157836 0.058127 0.50311  -0.1332300625
 C6 0.160355 0.989826 0.52736  0.1771609375
 C6 0.288021 0.949266 0.45736  0.1771609375
 C3 0.290145 0.016069 0.43057  -0.1332300625
 C2 0.224437 0.072671 0.4535  -0.0611115625
 C1 0.928048 0.192869 0.5784  0.6712821875
 C2 0.980093 0.195886 0.64567  -0.0611115625
 C3 0.997579 0.127422 0.66863  -0.1332300625
 C3 0.037136 0.124789 0.73338  -0.1332300625
 C2 0.058935 0.191562 0.77660  -0.0611115625
 C1 0.100083 0.191509 0.84757  0.6712821875
 C3 0.045304 0.259951 0.75301  -0.1332300625
 C4 0.0 0.263094 0.68746  0.1563084375
 C5 0.037611 0.343127 0.59782  -0.2389215625
 C1 0.978674 0.389013 0.55468  0.6712821875
 C5 0.0 0.400011 0.71620  -0.2389215625
 C1 0.935061 0.405795 0.77526  0.6712821875
 C1 0.712948 0.445249 0.00720  0.6712821875
 C2 0.624135 0.401339 0.99828  -0.0611115625
 C3 0.6049 0.355602 0.04876  -0.1332300625
 C3 0.529798 0.305546 0.0419  -0.1332300625
 C2 0.470222 0.302047 0.9843  -0.0611115625
 C1 0.383397 0.253017 0.97888  0.6712821875
 C3 0.486793 0.348248 0.93437  -0.1332300625
 C4 0.562429 0.399009 0.93980  0.1563084375
 C5 0.590482 0.526695 0.91513  -0.2389215625
 C1 0.670667 0.564189 0.8817  0.6712821875
 C5 0.515876 0.436755 0.82  -0.2389215625
 C1 0.546746 0.379741 0.76260  0.6712821875
 C6 0.846692 0.257653 0.89984  0.1771609375
 C3 0.853986 0.18974 0.92465  -0.1332300625
 C2 0.772863 0.145106 0.92695  -0.0611115625
 C3 0.687838 0.171818 0.90276  -0.1332300625
 C6 0.68685 0.239356 0.87749  0.1771609375
 C3 0.84203 0.058292 0.00305  -0.1332300625
 C6 0.839648 0.989959 0.02723  0.1771609375
 C6 0.711799 0.949282 0.95717  0.1771609375
 C3 0.709539 0.016119 0.93045  -0.1332300625
 C2 0.775298 0.072775 0.95349  -0.0611115625
 C1 0.928035 0.80734 0.92125  0.6712821875
 C2 0.980293 0.804219 0.85418  -0.0611115625
 C3 0.997932 0.872591 0.83110  -0.1332300625
 C3 0.037771 0.875033 0.76646  -0.1332300625
 C2 0.060071 0.808172 0.72361  -0.0611115625
 C1 0.101556 0.808061 0.65279  0.6712821875
 C3 0.046259 0.739892 0.74735  -0.1332300625
 C4 0.0 0.736942 0.81275  0.1563084375
 C5 0.037705 0.657172 0.90264  -0.2389215625
 C1 0.978715 0.611187 0.94559  0.6712821875
 C5 0.0 0.600018 0.78425  -0.2389215625
 C1 0.935253 0.594237 0.72500  0.6712821875
 C1 0.712986 0.554908 0.4928  0.6712821875
 C2 0.624216 0.59878 0.50168  -0.0611115625
 C3 0.604886 0.644506 0.45119  -0.1332300625
 C3 0.529847 0.694551 0.45799  -0.1332300625
 C2 0.470405 0.698 0.51557  -0.0611115625
 C1 0.383631 0.74699 0.52106  0.6712821875
 C3 0.487065 0.651806 0.56553  -0.1332300625
 C4 0.562625 0.601064 0.56011  0.1563084375
 C5 0.590572 0.473369 0.58478  -0.2389215625
 C1 0.670724 0.43587 0.61827  0.6712821875
 C5 0.516206 0.563258 0.67388  -0.2389215625
 C1 0.547138 0.6203 0.73731  0.6712821875
 C6 0.847005 0.742534 0.60020  0.1771609375
 C3 0.85429 0.810404 0.57532  -0.1332300625
 C2 0.7732 0.855025 0.57299  -0.0611115625
 C3 0.688218 0.828298 0.59717  -0.1332300625
 C6 0.687252 0.760811 0.62253  0.1771609375
 C3 0.842149 0.941847 0.49682  -0.1332300625
 C6 0.839613 0.0 0.47255  0.1771609375
 C6 0.71196 0.05071 0.54256  0.1771609375
 C3 0.709855 0.98392 0.56937  -0.1332300625
 C2 0.775552 0.927312 0.54636  -0.0611115625
 N1 0.008231 0.666142 0.33636  -0.1507015625
 N1 0.423442 0.553451 0.11127  -0.1507015625
 N2 0.235584 0.717433 0.12345  -0.3504365625
 N2 0.224255 0.063774 0.9949  -0.3504365625
 N1 0.008085 0.333657 0.16323  -0.1507015625
 N1 0.423201 0.44656 0.38874  -0.1507015625
 N2 0.235205 0.282494 0.37657  -0.3504365625
 N2 0.224195 0.936171 0.50522  -0.3504365625
 N1 0.99175 0.333813 0.66357  -0.1507015625
 N1 0.576565 0.446599 0.88870  -0.1507015625
 N2 0.764446 0.282629 0.87658  -0.3504365625
 N2 0.775774 0.936239 0.00504  -0.3504365625
 N1 0.991971 0.66632 0.83674  -0.1507015625
 N1 0.576806 0.553461 0.61122  -0.1507015625
 N2 0.764806 0.717558 0.62348  -0.3504365625
 N2 0.77578 0.063798 0.49469  -0.3504365625
 O1 0.151944 0.770856 0.42108  -0.6184165625
 O2 0.041226 0.846187 0.47491  -0.5872565625
 O3 0.860051 0.86897 0.14099  -0.612993229167
 O2 0.904882 0.749392 0.10819  -0.5872565625
 O1 0.110171 0.606761 0.43870  -0.6184165625
 O1 0.980065 0.577918 0.49097  -0.6184165625
 O1 0.14704 0.625063 0.24042  -0.6184165625
 O2 0.044999 0.559529 0.1665  -0.5872565625
 O3 0.255055 0.527733 0.93272  -0.612993229167
 O1 0.238303 0.54472 0.0464  -0.6184165625
 O2 0.621294 0.79993 0.98607  -0.5872565625
 O3 0.683227 0.730891 0.06120  -0.612993229167
 O3 0.275883 0.471195 0.1642  -0.612993229167
 O3 0.32041 0.366135 0.09629  -0.612993229167
 O3 0.37162 0.653021 0.23635  -0.612993229167
 O2 0.509904 0.628344 0.28645  -0.5872565625
 O1 0.152083 0.228795 0.07932  -0.6184165625
 O2 0.041266 0.153508 0.02523  -0.5872565625
 O3 0.860018 0.131027 0.35897  -0.612993229167
 O2 0.901772 0.251487 0.39091  -0.5872565625
 O1 0.110131 0.393089 0.06112  -0.6184165625
 O1 0.980005 0.422026 0.00875  -0.6184165625
 O1 0.146882 0.374889 0.25935  -0.6184165625
 O2 0.044928 0.440387 0.33304  -0.5872565625
 O3 0.25516 0.472216 0.56725  -0.612993229167
 O1 0.23827 0.45544 0.45355  -0.6184165625
 O2 0.621186 0.200087 0.51392  -0.5872565625
 O3 0.682755 0.269189 0.43877  -0.612993229167
 O3 0.275784 0.5288 0.33561  -0.612993229167
 O3 0.3205 0.633888 0.40359  -0.612993229167
 O3 0.371051 0.34697 0.26362  -0.612993229167
 O2 0.509387 0.37157 0.21367  -0.5872565625
 O1 0.848105 0.229098 0.57881  -0.6184165625
 O2 0.9588 0.153694 0.52505  -0.5872565625
 O3 0.139984 0.131042 0.85897  -0.612993229167
 O2 0.09514 0.250617 0.89176  -0.5872565625
 O1 0.889854 0.393263 0.56125  -0.6184165625
 O1 0.019987 0.422122 0.50902  -0.6184165625
 O1 0.85293 0.374937 0.75950  -0.6184165625
 O2 0.954997 0.440449 0.83336  -0.5872565625
 O3 0.744983 0.47228 0.06729  -0.612993229167
 O1 0.761655 0.455474 0.95359  -0.6184165625
 O2 0.378751 0.200097 0.01391  -0.5872565625
 O3 0.316816 0.269126 0.93877  -0.612993229167
 O3 0.724122 0.528841 0.83570  -0.612993229167
 O3 0.6796 0.633908 0.90365  -0.612993229167
 O3 0.628415 0.347011 0.76365  -0.612993229167
 O2 0.49014 0.371659 0.71353  -0.5872565625
 O1 0.847957 0.771206 0.92064  -0.6184165625
 O2 0.958767 0.846489 0.97474  -0.5872565625
 O3 0.139992 0.86895 0.64098  -0.612993229167
 O2 0.098269 0.748476 0.60907  -0.5872565625
 O1 0.889898 0.606927 0.93887  -0.6184165625
 O1 0.020009 0.577993 0.99125  -0.6184165625
 O1 0.853169 0.625111 0.74062  -0.6184165625
 O2 0.955111 0.559612 0.6669  -0.5872565625
 O3 0.744846 0.527792 0.43277  -0.612993229167
 O1 0.761822 0.544793 0.54646  -0.6184165625
 O2 0.378818 0.799938 0.4860  -0.5872565625
 O3 0.317236 0.730822 0.56119  -0.612993229167
 O3 0.724266 0.471241 0.66433  -0.612993229167
 O3 0.679537 0.366145 0.59636  -0.612993229167
 O3 0.62887 0.653033 0.73637  -0.612993229167
 O2 0.490523 0.628393 0.78628  -0.5872565625
