#======================================================================

# CRYSTAL DATA

#----------------------------------------------------------------------

data_VESTA_phase_1


_pd_phase_name                         MOF
_cell_length_a                         15.31600
_cell_length_b                         19.21000
_cell_length_c                         19.48500
_cell_angle_alpha                      89.96400
_cell_angle_beta                       90.00000
_cell_angle_gamma                      90.06900
_symmetry_space_group_name_H-M         "P 1"
_symmetry_Int_Tables_number            1

loop_
_symmetry_equiv_pos_as_xyz
   "x, y, z"

loop_
   _atom_site_label
   _atom_site_fract_x
   _atom_site_fract_y
   _atom_site_fract_z
 _atom_site_charge
 Zn1 0.25534 0.499876 0.50266  0.890071745283
 Zn1 0.755356 0.499876 0.50266  0.890071745283
 Zn1 0.244752 0.502554 0.  0.890071745283
 Zn1 0.744768 0.502554 0.  0.890071745283
 Zn1 0.244712 0.999626 0.49997  0.890071745283
 Zn1 0.744727 0.999626 0.49997  0.890071745283
 Zn1 0.255279 0.0 0.  0.890071745283
 Zn1 0.755294 0.0 0.  0.890071745283
 H1 0.306294 0.728644 0.47980  0.155897120283
 H1 0.806309 0.728644 0.47980  0.155897120283
 H1 0.424261 0.643362 0.45717  0.155897120283
 H1 0.924277 0.643362 0.45717  0.155897120283
 H1 0.114888 0.808736 0.47748  0.155897120283
 H1 0.614903 0.808736 0.47748  0.155897120283
 H1 0.494612 0.893894 0.49140  0.155897120283
 H1 0.994626 0.893894 0.49140  0.155897120283
 H1 0.000228 0.558805 0.52618  0.155897120283
 H1 0.500245 0.558805 0.52618  0.155897120283
 H1 0.036386 0.625944 0.58264  0.155897120283
 H1 0.536401 0.625945 0.58264  0.155897120283
 H1 0.096511 0.5464 0.57661  0.155897120283
 H1 0.596528 0.546402 0.5766  0.155897120283
 H1 0.20105 0.784662 0.38387  0.155897120283
 H1 0.701064 0.784661 0.38387  0.155897120283
 H1 0.114004 0.749753 0.33438  0.155897120283
 H1 0.614017 0.749751 0.33438  0.155897120283
 H1 0.223648 0.720563 0.32016  0.155897120283
 H1 0.72366 0.72056 0.32016  0.155897120283
 H1 0.151407 0.523368 0.7617  0.155897120283
 H1 0.651422 0.523366 0.76172  0.155897120283
 H1 0.032329 0.528741 0.67522  0.155897120283
 H1 0.532344 0.52874 0.67522  0.155897120283
 H1 0.341325 0.511889 0.83753  0.155897120283
 H1 0.84134 0.511891 0.83753  0.155897120283
 H1 0.460489 0.509278 0.92299  0.155897120283
 H1 0.960504 0.509281 0.92299  0.155897120283
 H1 0.36402 0.396241 0.58496  0.155897120283
 H1 0.864037 0.396242 0.58496  0.155897120283
 H1 0.413102 0.39378 0.6685  0.155897120283
 H1 0.913119 0.393782 0.6685  0.155897120283
 H1 0.465626 0.438437 0.60037  0.155897120283
 H1 0.965642 0.438439 0.60037  0.155897120283
 H1 0.246478 0.67608 0.72  0.155897120283
 H1 0.746493 0.676081 0.72  0.155897120283
 H1 0.35199 0.659104 0.76467  0.155897120283
 H1 0.852005 0.659105 0.76467  0.155897120283
 H1 0.25941 0.613669 0.7966  0.155897120283
 H1 0.759424 0.61367 0.7966  0.155897120283
 H1 0.192463 0.273342 0.98007  0.155897120283
 H1 0.692479 0.273341 0.98006  0.155897120283
 H1 0.074357 0.358429 0.95717  0.155897120283
 H1 0.574372 0.358428 0.9571  0.155897120283
 H1 0.384101 0.192724 0.97718  0.155897120283
 H1 0.884116 0.192724 0.97718  0.155897120283
 H1 0.004545 0.107737 0.99117  0.155897120283
 H1 0.504561 0.107736 0.99117  0.155897120283
 H1 0.498866 0.44309 0.02603  0.155897120283
 H1 0.998879 0.443091 0.02603  0.155897120283
 H1 0.463638 0.37525 0.08209  0.155897120283
 H1 0.963654 0.375249 0.08209  0.155897120283
 H1 0.4029 0.454559 0.07705  0.155897120283
 H1 0.902913 0.454557 0.0770  0.155897120283
 H1 0.297049 0.217176 0.88446  0.155897120283
 H1 0.797066 0.217178 0.8844  0.155897120283
 H1 0.383735 0.251951 0.83445  0.155897120283
 H1 0.883753 0.251953 0.83445  0.155897120283
 H1 0.274031 0.281284 0.82078  0.155897120283
 H1 0.774049 0.281286 0.8207  0.155897120283
 H1 0.348961 0.478485 0.26174  0.155897120283
 H1 0.848977 0.478484 0.26174  0.155897120283
 H1 0.468123 0.47305 0.17530  0.155897120283
 H1 0.96814 0.473049 0.17530  0.155897120283
 H1 0.158979 0.490011 0.33769  0.155897120283
 H1 0.658994 0.49001 0.33769  0.155897120283
 H1 0.039713 0.492718 0.42308  0.155897120283
 H1 0.539728 0.492717 0.42308  0.155897120283
 H1 0.136149 0.606038 0.08527  0.155897120283
 H1 0.636163 0.606038 0.08527  0.155897120283
 H1 0.08701 0.60824 0.16880  0.155897120283
 H1 0.587022 0.608239 0.16880  0.155897120283
 H1 0.034602 0.5637 0.10058  0.155897120283
 H1 0.534616 0.563698 0.10058  0.155897120283
 H1 0.254166 0.326022 0.22903  0.155897120283
 H1 0.754181 0.326022 0.22903  0.155897120283
 H1 0.148583 0.342763 0.26465  0.155897120283
 H1 0.648598 0.342763 0.26465  0.155897120283
 H1 0.241027 0.388268 0.29669  0.155897120283
 H1 0.741042 0.388268 0.2966  0.155897120283
 H1 0.194077 0.228881 0.47959  0.155897120283
 H1 0.694093 0.228881 0.47959  0.155897120283
 H1 0.075966 0.143863 0.45567  0.155897120283
 H1 0.575982 0.143863 0.45567  0.155897120283
 H1 0.385536 0.308597 0.47911  0.155897120283
 H1 0.885551 0.308597 0.47911  0.155897120283
 H1 0.005971 0.393657 0.4942  0.155897120283
 H1 0.505988 0.393657 0.49425  0.155897120283
 H1 0.500327 0.058436 0.52355  0.155897120283
 H1 0.0 0.058436 0.52355  0.155897120283
 H1 0.463738 0.124323 0.58120  0.155897120283
 H1 0.963753 0.124324 0.58120  0.155897120283
 H1 0.404119 0.044523 0.57365  0.155897120283
 H1 0.904132 0.044524 0.57365  0.155897120283
 H1 0.299416 0.286027 0.38508  0.155897120283
 H1 0.799432 0.286026 0.38508  0.155897120283
 H1 0.386134 0.251928 0.33481  0.155897120283
 H1 0.88615 0.251926 0.33481  0.155897120283
 H1 0.276344 0.222966 0.32043  0.155897120283
 H1 0.77636 0.222964 0.32043  0.155897120283
 H1 0.349228 0.023173 0.75920  0.155897120283
 H1 0.849245 0.023177 0.75920  0.155897120283
 H1 0.468379 0.028326 0.67275  0.155897120283
 H1 0.968396 0.028331 0.67275  0.155897120283
 H1 0.15921 0.0 0.83522  0.155897120283
 H1 0.659225 0.0 0.83522  0.155897120283
 H1 0.04 0.0 0.92061  0.155897120283
 H1 0.540016 0.0 0.92061  0.155897120283
 H1 0.13645 0.895656 0.58309  0.155897120283
 H1 0.636467 0.895655 0.58309  0.155897120283
 H1 0.087325 0.89351 0.66664  0.155897120283
 H1 0.587341 0.893508 0.66664  0.155897120283
 H1 0.034856 0.937752 0.59827  0.155897120283
 H1 0.534872 0.93775 0.59827  0.155897120283
 H1 0.254442 0.176181 0.72598  0.155897120283
 H1 0.754454 0.17618 0.72598  0.155897120283
 H1 0.148915 0.159249 0.76173  0.155897120283
 H1 0.648927 0.159248 0.76173  0.155897120283
 H1 0.241424 0.113979 0.79379  0.155897120283
 H1 0.741437 0.113978 0.79379  0.155897120283
 H1 0.307275 0.772559 0.97944  0.155897120283
 H1 0.80729 0.772559 0.97944  0.155897120283
 H1 0.425282 0.857643 0.95544  0.155897120283
 H1 0.925297 0.857643 0.95544  0.155897120283
 H1 0.115862 0.692961 0.97876  0.155897120283
 H1 0.615878 0.692961 0.97876  0.155897120283
 H1 0.495543 0.607828 0.99384  0.155897120283
 H1 0.995559 0.607828 0.99384  0.155897120283
 H1 0.000291 0.943383 0.02316  0.155897120283
 H1 0.500306 0.943383 0.02316  0.155897120283
 H1 0.036214 0.877051 0.08063  0.155897120283
 H1 0.53623 0.87705 0.08063  0.155897120283
 H1 0.096148 0.956763 0.07380  0.155897120283
 H1 0.596164 0.956762 0.07380  0.155897120283
 H1 0.20263 0.715981 0.88546  0.155897120283
 H1 0.702647 0.715981 0.88546  0.155897120283
 H1 0.116221 0.749966 0.83475  0.155897120283
 H1 0.616238 0.749966 0.83475  0.155897120283
 H1 0.226036 0.779163 0.82093  0.155897120283
 H1 0.726053 0.779163 0.82093  0.155897120283
 H1 0.150489 0.978786 0.25916  0.155897120283
 H1 0.650504 0.978784 0.25916  0.155897120283
 H1 0.03121 0.973485 0.17281  0.155897120283
 H1 0.531225 0.973482 0.17281  0.155897120283
 H1 0.3406 0.989876 0.33538  0.155897120283
 H1 0.840616 0.989875 0.33538  0.155897120283
 H1 0.459944 0.992518 0.42068  0.155897120283
 H1 0.959959 0.992515 0.42068  0.155897120283
 H1 0.363244 0.106723 0.08348  0.155897120283
 H1 0.863259 0.106723 0.08348  0.155897120283
 H1 0.412611 0.108506 0.16695  0.155897120283
 H1 0.912624 0.108507 0.16695  0.155897120283
 H1 0.464833 0.064487 0.09837  0.155897120283
 H1 0.964849 0.064488 0.09837  0.155897120283
 H1 0.244981 0.826001 0.22618  0.155897120283
 H1 0.744999 0.826 0.22618  0.155897120283
 H1 0.350584 0.842722 0.26187  0.155897120283
 H1 0.850601 0.842722 0.2618  0.155897120283
 H1 0.258228 0.888135 0.29395  0.155897120283
 H1 0.758245 0.888134 0.29395  0.155897120283
 C1 0.319406 0.868208 0.49793  0.673971745283
 C1 0.819421 0.868208 0.49793  0.673971745283
 C2 0.392463 0.816823 0.48708  -0.120378254717
 C2 0.892478 0.816823 0.48708  -0.120378254717
 C3 0.373824 0.745969 0.47813  -0.201712004717
 C3 0.873839 0.745969 0.47813  -0.201712004717
 C3 0.440286 0.697889 0.466  -0.201712004717
 C3 0.940302 0.697889 0.46629  -0.201712004717
 C4 0.026912 0.7211 0.46593  0.167491745283
 C4 0.526927 0.7211 0.46593  0.167491745283
 C3 0.047154 0.791399 0.47591  -0.201712004717
 C3 0.547169 0.791399 0.47591  -0.201712004717
 C3 0.479655 0.838925 0.48515  -0.201712004717
 C3 0.97967 0.838924 0.48515  -0.201712004717
 C5 0.058283 0.5846 0.54776  -0.420100754717
 C5 0.558299 0.584601 0.54776  -0.420100754717
 C6 0.114225 0.613599 0.49280  0.386496745283
 C6 0.61424 0.613599 0.49280  0.386496745283
 C6 0.166309 0.679835 0.40965  0.386496745283
 C6 0.666323 0.679834 0.40965  0.386496745283
 C5 0.176426 0.737081 0.35911  -0.420100754717
 C5 0.676439 0.737079 0.35911  -0.420100754717
 C1 0.138566 0.517009 0.8982  0.673971745283
 C1 0.638581 0.51701 0.89822  0.673971745283
 C2 0.064193 0.515868 0.84798  -0.120378254717
 C2 0.564208 0.515867 0.84798  -0.120378254717
 C3 0.083485 0.520606 0.77777  -0.201712004717
 C3 0.5835 0.520605 0.77777  -0.201712004717
 C3 0.016953 0.523177 0.72940  -0.201712004717
 C3 0.516968 0.523175 0.72940  -0.201712004717
 C4 0.429951 0.520488 0.75108  0.167491745283
 C4 0.929966 0.52049 0.75108  0.167491745283
 C3 0.409114 0.514137 0.82062  -0.201712004717
 C3 0.90913 0.514139 0.82062  -0.201712004717
 C3 0.476713 0.512081 0.86871  -0.201712004717
 C3 0.976729 0.512082 0.86871  -0.201712004717
 C5 0.40169 0.426045 0.62286  -0.420100754717
 C5 0.901707 0.426046 0.62286  -0.420100754717
 C6 0.352554 0.489754 0.64116  0.386496745283
 C6 0.85257 0.489755 0.64116  0.386496745283
 C6 0.301383 0.581398 0.69675  0.386496745283
 C6 0.801398 0.581399 0.69675  0.386496745283
 C5 0.289243 0.635639 0.74995  -0.420100754717
 C5 0.789258 0.63564 0.74995  -0.420100754717
 C1 0.179704 0.133846 0.99819  0.673971745283
 C1 0.679719 0.133845 0.99819  0.673971745283
 C2 0.106502 0.185014 0.98714  -0.120378254717
 C2 0.606518 0.185014 0.98714  -0.120378254717
 C3 0.12499 0.255905 0.97823  -0.201712004717
 C3 0.625006 0.255904 0.9782  -0.201712004717
 C3 0.058442 0.303869 0.96626  -0.201712004717
 C3 0.558458 0.303868 0.96626  -0.201712004717
 C4 0.47187 0.280527 0.96579  0.167491745283
 C4 0.971885 0.280527 0.96579  0.167491745283
 C3 0.451789 0.210172 0.97566  -0.201712004717
 C3 0.951805 0.210172 0.97566  -0.201712004717
 C3 0.019392 0.162742 0.98498  -0.201712004717
 C3 0.519408 0.162741 0.98498  -0.201712004717
 C5 0.44116 0.416833 0.04768  -0.420100754717
 C5 0.941174 0.416833 0.04768  -0.420100754717
 C6 0.384947 0.388081 0.99281  0.386496745283
 C6 0.884962 0.388081 0.99281  0.386496745283
 C6 0.332209 0.321967 0.90990  0.386496745283
 C6 0.832226 0.321968 0.90990  0.386496745283
 C5 0.32156 0.264719 0.85950  -0.420100754717
 C5 0.821577 0.264721 0.85950  -0.420100754717
 C1 0.361656 0.485133 0.39820  0.673971745283
 C1 0.861672 0.485133 0.39820  0.673971745283
 C2 0.436102 0.486104 0.34803  -0.120378254717
 C2 0.936117 0.486105 0.34803  -0.120378254717
 C3 0.416867 0.481263 0.27781  -0.201712004717
 C3 0.916883 0.481262 0.27781  -0.201712004717
 C3 0.483438 0.478657 0.22949  -0.201712004717
 C3 0.983454 0.478657 0.22949  -0.201712004717
 C4 0.070417 0.481398 0.25122  0.167491745283
 C4 0.570432 0.481397 0.25122  0.167491745283
 C3 0.091202 0.487763 0.32075  -0.201712004717
 C3 0.591217 0.487762 0.32075  -0.201712004717
 C3 0.023559 0.489864 0.36880  -0.201712004717
 C3 0.523574 0.489863 0.36880  -0.201712004717
 C5 0.0985 0.576105 0.12311  -0.420100754717
 C5 0.598514 0.576104 0.12311  -0.420100754717
 C6 0.147746 0.512408 0.14134  0.386496745283
 C6 0.647761 0.512408 0.14134  0.386496745283
 C6 0.199071 0.420694 0.19683  0.386496745283
 C6 0.699086 0.420693 0.19683  0.386496745283
 C5 0.211289 0.366355 0.24999  -0.420100754717
 C5 0.711304 0.366355 0.24999  -0.420100754717
 C1 0.181127 0.368119 0.49992  0.673971745283
 C1 0.681144 0.368118 0.49992  0.673971745283
 C2 0.107998 0.316802 0.48846  -0.120378254717
 C2 0.608015 0.316801 0.48846  -0.120378254717
 C3 0.12656 0.246144 0.47831  -0.201712004717
 C3 0.626576 0.246144 0.47831  -0.201712004717
 C3 0.06002 0.198199 0.46575  -0.201712004717
 C3 0.560036 0.198199 0.46575  -0.201712004717
 C4 0.47342 0.221301 0.46591  0.167491745283
 C4 0.973435 0.221301 0.46591  0.167491745283
 C3 0.453251 0.291377 0.47715  -0.201712004717
 C3 0.953265 0.291376 0.47715  -0.201712004717
 C3 0.020825 0.338818 0.4870  -0.201712004717
 C3 0.520841 0.338818 0.48707  -0.201712004717
 C5 0.442118 0.083515 0.54557  -0.420100754717
 C5 0.942132 0.083516 0.54557  -0.420100754717
 C6 0.386078 0.113268 0.49112  0.386496745283
 C6 0.886093 0.113268 0.49112  0.386496745283
 C6 0.333914 0.180784 0.40909  0.386496745283
 C6 0.83393 0.180783 0.40909  0.386496745283
 C5 0.323783 0.238852 0.35951  -0.420100754717
 C5 0.823799 0.23885 0.35951  -0.420100754717
 C1 0.361875 0.017245 0.89570  0.673971745283
 C1 0.861891 0.017245 0.89570  0.673971745283
 C2 0.43634 0.015977 0.84554  -0.120378254717
 C2 0.936356 0.015978 0.84554  -0.120378254717
 C3 0.417128 0.020495 0.775  -0.201712004717
 C3 0.917145 0.020498 0.775  -0.201712004717
 C3 0.483707 0.022963 0.72696  -0.201712004717
 C3 0.983724 0.022967 0.72696  -0.201712004717
 C4 0.070693 0.020446 0.74869  0.167491745283
 C4 0.570708 0.020444 0.74869  0.167491745283
 C3 0.091447 0.014352 0.8182  -0.201712004717
 C3 0.591462 0.014351 0.81825  -0.201712004717
 C3 0.023799 0.012351 0.86632  -0.201712004717
 C3 0.523814 0.01235 0.86632  -0.201712004717
 C5 0.098769 0.925573 0.62084  -0.420100754717
 C5 0.598785 0.925572 0.62084  -0.420100754717
 C6 0.147956 0.98942 0.6388  0.386496745283
 C6 0.64797 0.989418 0.6388  0.386496745283
 C6 0.19931 0.081332 0.69407  0.386496745283
 C6 0.699323 0.081331 0.69407  0.386496745283
 C5 0.211611 0.135775 0.74708  -0.420100754717
 C5 0.711623 0.135774 0.74708  -0.420100754717
 C1 0.320313 0.633368 0.99981  0.673971745283
 C1 0.820328 0.633368 0.99981  0.673971745283
 C2 0.393421 0.684658 0.98822  -0.120378254717
 C2 0.893436 0.684658 0.9882  -0.120378254717
 C3 0.374797 0.75532 0.97808  -0.201712004717
 C3 0.874812 0.75532 0.97808  -0.201712004717
 C3 0.44129 0.803305 0.96550  -0.201712004717
 C3 0.941305 0.803306 0.96550  -0.201712004717
 C4 0.027922 0.780268 0.96566  0.167491745283
 C4 0.527937 0.780268 0.96566  0.167491745283
 C3 0.048141 0.710171 0.97681  -0.201712004717
 C3 0.548157 0.71017 0.97681  -0.201712004717
 C3 0.480605 0.66267 0.9867  -0.201712004717
 C3 0.98062 0.662671 0.98672  -0.201712004717
 C5 0.058254 0.918044 0.04532  -0.420100754717
 C5 0.558269 0.918043 0.04532  -0.420100754717
 C6 0.11467 0.888511 0.99104  0.386496745283
 C6 0.614686 0.88851 0.99104  0.386496745283
 C6 0.167613 0.821148 0.90927  0.386496745283
 C6 0.667629 0.821148 0.90927  0.386496745283
 C5 0.178324 0.763141 0.85977  -0.420100754717
 C5 0.678341 0.763141 0.85977  -0.420100754717
 C1 0.138024 0.985126 0.39563  0.673971745283
 C1 0.638039 0.985125 0.39563  0.673971745283
 C2 0.063483 0.9862 0.34554  -0.120378254717
 C2 0.563498 0.986199 0.34554  -0.120378254717
 C3 0.08261 0.981503 0.275  -0.201712004717
 C3 0.582625 0.981501 0.27529  -0.201712004717
 C3 0.01597 0.978943 0.2270  -0.201712004717
 C3 0.515985 0.978942 0.2270  -0.201712004717
 C4 0.429018 0.981558 0.2488  0.167491745283
 C4 0.929034 0.981559 0.2488  0.167491745283
 C3 0.408344 0.987746 0.31838  -0.201712004717
 C3 0.908359 0.987744 0.31838  -0.201712004717
 C3 0.476056 0.98983 0.36638  -0.201712004717
 C3 0.976072 0.989829 0.36638  -0.201712004717
 C5 0.401002 0.076631 0.12108  -0.420100754717
 C5 0.901017 0.076632 0.12108  -0.420100754717
 C6 0.351786 0.0 0.13901  0.386496745283
 C6 0.851801 0.0 0.13901  0.386496745283
 C6 0.300343 0.920786 0.194  0.386496745283
 C6 0.800359 0.920786 0.194  0.386496745283
 C5 0.287942 0.866317 0.24723  -0.420100754717
 C5 0.787958 0.866317 0.24723  -0.420100754717
 N1 0.189012 0.587039 0.47051  -0.238358254717
 N1 0.689028 0.587039 0.47051  -0.238358254717
 N2 0.221711 0.62801 0.41794  -0.328668254717
 N2 0.721725 0.628009 0.41794  -0.328668254717
 N3 0.09738 0.67292 0.4555  -0.121463254717
 N3 0.597395 0.67292 0.45557  -0.121463254717
 N1 0.289393 0.518785 0.60436  -0.238358254717
 N1 0.789409 0.518785 0.60436  -0.238358254717
 N2 0.256952 0.576349 0.63892  -0.328668254717
 N2 0.756968 0.57635 0.63892  -0.328668254717
 N3 0.362344 0.527952 0.70043  -0.121463254717
 N3 0.86236 0.527953 0.70043  -0.121463254717
 N1 0.310178 0.414839 0.97070  -0.238358254717
 N1 0.810193 0.414839 0.97070  -0.238358254717
 N2 0.277067 0.373945 0.91828  -0.328668254717
 N2 0.777084 0.373946 0.91828  -0.328668254717
 N3 0.401383 0.328712 0.95561  -0.121463254717
 N3 0.901399 0.328713 0.95561  -0.121463254717
 N1 0.210927 0.483527 0.10449  -0.238358254717
 N1 0.710941 0.483527 0.10449  -0.238358254717
 N2 0.243465 0.425912 0.13900  -0.328668254717
 N2 0.743479 0.425912 0.13900  -0.328668254717
 N3 0.138046 0.474077 0.2005  -0.121463254717
 N3 0.638061 0.474076 0.20058  -0.121463254717
 N1 0.311244 0.086972 0.4684  -0.238358254717
 N1 0.811259 0.086972 0.46846  -0.238358254717
 N2 0.278482 0.128748 0.41659  -0.328668254717
 N2 0.778497 0.128747 0.41659  -0.328668254717
 N3 0.402898 0.173213 0.45483  -0.121463254717
 N3 0.902913 0.173213 0.45483  -0.121463254717
 N1 0.211037 0.018428 0.60185  -0.238358254717
 N1 0.711051 0.018428 0.60185  -0.238358254717
 N2 0.243588 0.076163 0.63619  -0.328668254717
 N2 0.743601 0.076163 0.63619  -0.328668254717
 N3 0.138324 0.027794 0.69802  -0.121463254717
 N3 0.638338 0.027793 0.69802  -0.121463254717
 N1 0.189481 0.915053 0.96859  -0.238358254717
 N1 0.689497 0.915052 0.96859  -0.238358254717
 N2 0.222736 0.873367 0.916  -0.328668254717
 N2 0.722752 0.873366 0.91689  -0.328668254717
 N3 0.098343 0.828497 0.9547  -0.121463254717
 N3 0.598359 0.828497 0.95477  -0.121463254717
 N1 0.288735 0.983823 0.10197  -0.238358254717
 N1 0.788751 0.983823 0.10197  -0.238358254717
 N2 0.256124 0.926045 0.13629  -0.328668254717
 N2 0.756141 0.926045 0.13629  -0.328668254717
 N3 0.361348 0.974294 0.19818  -0.121463254717
 N3 0.861364 0.974295 0.19818  -0.121463254717
 O1 0.343622 0.932892 0.50267  -0.589418254717
 O1 0.843637 0.932891 0.50267  -0.589418254717
 O2 0.242001 0.847647 0.50142  -0.573128254717
 O2 0.742016 0.847647 0.50142  -0.573128254717
 O1 0.122548 0.499729 0.96141  -0.589418254717
 O1 0.622564 0.499729 0.96141  -0.589418254717
 O2 0.213267 0.534494 0.87805  -0.573128254717
 O2 0.713282 0.534495 0.87805  -0.573128254717
 O1 0.155869 0.069057 0.00262  -0.589418254717
 O1 0.655885 0.069056 0.00262  -0.589418254717
 O2 0.25695 0.154689 0.00214  -0.573128254717
 O2 0.756966 0.154687 0.00213  -0.573128254717
 O1 0.377476 0.502957 0.46126  -0.589418254717
 O1 0.877492 0.502957 0.46126  -0.589418254717
 O2 0.287082 0.467316 0.3780  -0.573128254717
 O2 0.787098 0.467315 0.37807  -0.573128254717
 O1 0.156893 0.432692 0.50549  -0.589418254717
 O1 0.65691 0.432692 0.50549  -0.589418254717
 O2 0.258515 0.347624 0.5030  -0.573128254717
 O2 0.758532 0.347624 0.5030  -0.573128254717
 O1 0.377554 0.999862 0.95890  -0.589418254717
 O1 0.877569 0.999862 0.95890  -0.589418254717
 O2 0.287366 0.034992 0.87543  -0.573128254717
 O2 0.787381 0.034991 0.87543  -0.573128254717
 O1 0.344342 0.568762 0.00536  -0.589418254717
 O1 0.844358 0.568762 0.00536  -0.589418254717
 O2 0.242935 0.653872 0.00310  -0.573128254717
 O2 0.74295 0.653872 0.00310  -0.573128254717
 O1 0.122479 0.002843 0.45874  -0.589418254717
 O1 0.622495 0.002843 0.45874  -0.589418254717
 O2 0.212456 0.967214 0.37538  -0.573128254717
 O2 0.712471 0.967215 0.37538  -0.573128254717
