#======================================================================

# CRYSTAL DATA

#----------------------------------------------------------------------

data_VESTA_phase_1


_pd_phase_name                         MOF
_cell_length_a                         13.46400
_cell_length_b                         14.94900
_cell_length_c                         14.95300
_cell_angle_alpha                      89.95300
_cell_angle_beta                       89.98200
_cell_angle_gamma                      89.96400
_symmetry_space_group_name_H-M         "P 1"
_symmetry_Int_Tables_number            1

loop_
_symmetry_equiv_pos_as_xyz
   "x, y, z"

loop_
   _atom_site_label
   _atom_site_fract_x
   _atom_site_fract_y
   _atom_site_fract_z
 _atom_site_charge
 Cd1 0.500028 0.745393 0.7451  0.903164907407
 Cd1 6.5e-05 0.254998 0.25486  0.903164907407
 Cd1 0.750051 0.755034 0.24511  0.903164907407
 Cd1 0.250082 0.245099 0.75515  0.903164907407
 H1 0.429922 0.967546 0.68355  0.107863065302
 H1 0.260544 0.0 0.58396  0.107863065302
 H1 0.2914 0.723378 0.61811  0.107863065302
 H1 0.202793 0.948487 0.43700  0.107863065302
 H1 0.055087 0.9209 0.34034  0.107863065302
 H1 0.959299 0.711356 0.51563  0.107863065302
 H1 0.106124 0.739107 0.61520  0.107863065302
 H1 0.417167 0.542735 0.70667  0.107863065302
 H1 0.415169 0.418891 0.59317  0.107863065302
 H1 0.569649 0.683836 0.96737  0.107863065302
 H1 0.739147 0.584359 0.  0.107863065302
 H1 0.70898 0.618611 0.7234  0.107863065302
 H1 0.797332 0.43747 0.94858  0.107863065302
 H1 0.945093 0.34069 0.92097  0.107863065302
 H1 0.041001 0.515969 0.7114  0.107863065302
 H1 0.894131 0.615667 0.73926  0.107863065302
 H1 0.58353 0.706695 0.54263  0.107863065302
 H1 0.586256 0.592874 0.419  0.107863065302
 H1 0.500938 0.445267 0.44571  0.107863065302
 H1 0.930375 0.032669 0.31655  0.107863065302
 H1 0.761011 0.996025 0.41617  0.107863065302
 H1 0.791321 0.276803 0.38176  0.107863065302
 H1 0.703166 0.051786 0.5630  0.107863065302
 H1 0.555333 0.079219 0.65974  0.107863065302
 H1 0.459054 0.288657 0.48444  0.107863065302
 H1 0.606019 0.261018 0.38482  0.107863065302
 H1 0.916863 0.457606 0.29355  0.107863065302
 H1 0.914418 0.581252 0.40725  0.107863065302
 H1 0.070044 0.316871 0.03264  0.107863065302
 H1 0.239523 0.416282 0.99608  0.107863065302
 H1 0.208908 0.381718 0.27677  0.107863065302
 H1 0.297334 0.562949 0.05172  0.107863065302
 H1 0.444983 0.659684 0.07923  0.107863065302
 H1 0.540972 0.484485 0.28883  0.107863065302
 H1 0.394169 0.384841 0.26114  0.107863065302
 H1 0.083253 0.29345 0.45742  0.107863065302
 H1 0.085495 0.407039 0.58118  0.107863065302
 H1 0.99985 0.554618 0.55478  0.107863065302
 H1 0.680876 0.816819 0.4674  0.107863065302
 H1 0.511579 0.916557 0.50422  0.107863065302
 H1 0.541447 0.881966 0.22350  0.107863065302
 H1 0.452991 0.063228 0.44843  0.107863065302
 H1 0.305054 0.159785 0.42070  0.107863065302
 H1 0.20959 0.984443 0.21142  0.107863065302
 H1 0.35668 0.885015 0.23931  0.107863065302
 H1 0.666989 0.793841 0.04242  0.107863065302
 H1 0.664683 0.907574 0.91863  0.107863065302
 H1 0.819566 0.532806 0.18358  0.107863065302
 H1 0.989121 0.495979 0.08425  0.107863065302
 H1 0.958978 0.776776 0.11850  0.107863065302
 H1 0.047265 0.551768 0.9374  0.107863065302
 H1 0.195071 0.579365 0.84075  0.107863065302
 H1 0.291047 0.788539 0.  0.107863065302
 H1 0.144123 0.76075 0.11562  0.107863065302
 H1 0.832924 0.957852 0.20640  0.107863065302
 H1 0.835303 0.081584 0.09265  0.107863065302
 H1 0.750015 0.055135 0.94505  0.107863065302
 H1 0.180755 0.183562 0.53303  0.107863065302
 H1 0.011396 0.084178 0.49609  0.107863065302
 H1 0.041154 0.118212 0.77686  0.107863065302
 H1 0.953081 0.937379 0.551  0.107863065302
 H1 0.805309 0.840754 0.57925  0.107863065302
 H1 0.709277 0.0 0.7887  0.107863065302
 H1 0.856198 0.115329 0.76098  0.107863065302
 H1 0.166862 0.206466 0.95785  0.107863065302
 H1 0.164311 0.092622 0.08154  0.107863065302
 H1 0.319565 0.467373 0.81648  0.107863065302
 H1 0.488768 0.504228 0.9160  0.107863065302
 H1 0.458859 0.223402 0.8822  0.107863065302
 H1 0.546971 0.448488 0.0631  0.107863065302
 H1 0.6948 0.420862 0.15970  0.107863065302
 H1 0.790906 0.211536 0.98449  0.107863065302
 H1 0.643917 0.239324 0.88499  0.107863065302
 H1 0.332934 0.042338 0.79382  0.107863065302
 H1 0.335074 0.918486 0.90746  0.107863065302
 H1 0.249586 0.944942 0.05502  0.107863065302
 C1 0.376571 0.922058 0.65407  0.0204557407407
 C1 0.293594 0.941397 0.60448  0.0204557407407
 C2 0.306986 0.794268 0.6233  0.132214907407
 C3 0.163356 0.845062 0.53144  0.132804907407
 C4 0.148911 0.897261 0.45489  -0.107904638047
 C4 0.06662 0.881606 0.40081  -0.107904638047
 C5 0.998276 0.814083 0.42197  -0.134565092593
 C4 0.013643 0.762687 0.49917  -0.107904638047
 C4 0.095418 0.777899 0.55419  -0.107904638047
 C6 0.909797 0.797499 0.36219  0.627514907407
 C1 0.454283 0.549893 0.64243  0.0204557407407
 C4 0.452975 0.481884 0.57871  -0.107904638047
 C1 0.623195 0.654402 0.92197  0.0204557407407
 C1 0.706233 0.604882 0.94141  0.0204557407407
 C2 0.693196 0.62377 0.79429  0.132214907407
 C3 0.836799 0.531901 0.8451  0.132804907407
 C4 0.851273 0.455359 0.89739  -0.107904638047
 C4 0.933519 0.401154 0.88165  -0.107904638047
 C5 0.001954 0.422311 0.8141  -0.134565092593
 C4 0.986574 0.499496 0.7627  -0.107904638047
 C4 0.90484 0.554651 0.77806  -0.107904638047
 C6 0.090368 0.362373 0.79751  0.627514907407
 C1 0.5466 0.642387 0.54989  0.0204557407407
 C4 0.548317 0.578495 0.48205  -0.107904638047
 C4 0.500773 0.496896 0.49719  -0.107904638047
 C1 0.876919 0.078154 0.34600  0.0204557407407
 C1 0.793952 0.058797 0.39560  0.0204557407407
 C2 0.807064 0.205918 0.3766  0.132214907407
 C3 0.663486 0.155109 0.4685  0.132804907407
 C4 0.649157 0.102958 0.54518  -0.107904638047
 C4 0.566782 0.118516 0.59925  -0.107904638047
 C5 0.498272 0.185998 0.57810  -0.134565092593
 C4 0.513567 0.237376 0.50088  -0.107904638047
 C4 0.595416 0.22224 0.44585  -0.107904638047
 C6 0.409735 0.202548 0.63789  0.627514907407
 C1 0.953883 0.450351 0.35781  0.0204557407407
 C4 0.952296 0.518239 0.42165  -0.107904638047
 C1 0.123481 0.346202 0.07814  0.0204557407407
 C1 0.206509 0.395698 0.05882  0.0204557407407
 C2 0.193233 0.376654 0.2059  0.132214907407
 C3 0.336847 0.468542 0.15515  0.132804907407
 C4 0.35123 0.545106 0.10295  -0.107904638047
 C4 0.433502 0.599208 0.11854  -0.107904638047
 C5 0.501903 0.578096 0.18607  -0.134565092593
 C4 0.486566 0.500904 0.23749  -0.107904638047
 C4 0.404804 0.445853 0.22233  -0.107904638047
 C6 0.590356 0.637903 0.20260  0.627514907407
 C1 0.04619 0.357746 0.45025  0.0204557407407
 C4 0.047622 0.421501 0.51822  -0.107904638047
 C4 0.999925 0.503099 0.50319  -0.107904638047
 C1 0.627344 0.846271 0.42203  0.0204557407407
 C1 0.544401 0.895921 0.44143  0.0204557407407
 C2 0.557273 0.876862 0.29435  0.132214907407
 C3 0.413749 0.968796 0.34514  0.132804907407
 C4 0.399136 0.045284 0.39725  -0.107904638047
 C4 0.316757 0.09933 0.38149  -0.107904638047
 C5 0.24838 0.078099 0.31404  -0.134565092593
 C4 0.263959 0.000959 0.26271  -0.107904638047
 C4 0.345826 0.945997 0.27803  -0.107904638047
 C6 0.15978 0.137818 0.29742  0.627514907407
 C1 0.703935 0.858134 0.04961  0.0204557407407
 C4 0.702446 0.921987 0.98162  -0.107904638047
 C1 0.873134 0.57821 0.15419  0.0204557407407
 C1 0.956196 0.558788 0.10474  0.0204557407407
 C2 0.943177 0.70591 0.12361  0.132214907407
 C3 0.086775 0.655021 0.03184  0.132804907407
 C4 0.101209 0.602899 0.95532  -0.107904638047
 C4 0.18351 0.618596 0.9012  -0.107904638047
 C5 0.251967 0.686009 0.92235  -0.134565092593
 C4 0.236589 0.737319 0.99953  -0.107904638047
 C4 0.154814 0.722047 0.05461  -0.107904638047
 C6 0.340407 0.702606 0.86245  0.627514907407
 C1 0.795999 0.950646 0.14211  0.0204557407407
 C4 0.79752 0.018593 0.0782  -0.107904638047
 C4 0.749994 0.00354 0.99666  -0.107904638047
 C1 0.127165 0.154115 0.57838  0.0204557407407
 C1 0.0442 0.10464 0.55891  0.0204557407407
 C2 0.05703 0.123421 0.70602  0.132214907407
 C3 0.913576 0.031678 0.65509  0.132804907407
 C4 0.899141 0.955245 0.60289  -0.107904638047
 C4 0.816843 0.90115 0.61857  -0.107904638047
 C5 0.748343 0.922271 0.68602  -0.134565092593
 C4 0.763744 0.999366 0.7374  -0.107904638047
 C4 0.845522 0.05438 0.72219  -0.107904638047
 C6 0.659815 0.862495 0.70255  0.627514907407
 C1 0.203762 0.142111 0.95061  0.0204557407407
 C4 0.202173 0.078215 0.01856  -0.107904638047
 C1 0.37305 0.421955 0.84604  0.0204557407407
 C1 0.455944 0.441409 0.89563  0.0204557407407
 C2 0.44303 0.294268 0.87695  0.132214907407
 C3 0.586519 0.345164 0.9687  0.132804907407
 C4 0.600938 0.397302 0.04522  -0.107904638047
 C4 0.683292 0.381621 0.09926  -0.107904638047
 C5 0.751768 0.314134 0.07810  -0.134565092593
 C4 0.736424 0.262818 0.00095  -0.107904638047
 C4 0.654587 0.278066 0.94596  -0.107904638047
 C6 0.840323 0.297521 0.13782  0.627514907407
 C1 0.295906 0.049528 0.85809  0.0204557407407
 C4 0.29733 0.981535 0.92191  -0.107904638047
 C4 0.249654 0.996579 0.00346  -0.107904638047
 N1 0.384201 0.830315 0.66487  -0.353358425926
 N2 0.249261 0.859513 0.58525  0.0302749074074
 N1 0.615787 0.665232 0.83024  -0.353358425926
 N2 0.750809 0.585715 0.85958  0.0302749074074
 N1 0.500318 0.628937 0.62886  -0.353358425926
 N1 0.884392 0.169889 0.33511  -0.353358425926
 N2 0.74944 0.140682 0.41476  0.0302749074074
 N1 0.115914 0.335264 0.16985  -0.353358425926
 N2 0.250939 0.414747 0.14070  0.0302749074074
 N1 2.7e-05 0.371307 0.37127  -0.353358425926
 N1 0.634643 0.835335 0.33032  -0.353358425926
 N2 0.499772 0.915043 0.35962  0.0302749074074
 N1 0.865749 0.669947 0.16502  -0.353358425926
 N2 0.0 0.640612 0.08561  0.0302749074074
 N1 0.74996 0.87161 0.12864  -0.353358425926
 N1 0.134445 0.16488 0.67011  -0.353358425926
 N2 0.999523 0.085437 0.64070  0.0302749074074
 N1 0.365705 0.330207 0.83533  -0.353358425926
 N2 0.500543 0.359575 0.9149  0.0302749074074
 N1 0.24993 0.12864 0.87161  -0.353358425926
 O1 0.899754 0.847391 0.29382  -0.617375092593
 O1 0.850307 0.734448 0.38290  -0.617375092593
 O1 0.100363 0.293997 0.84742  -0.617375092593
 O1 0.149838 0.382943 0.73438  -0.617375092593
 O1 0.399716 0.152661 0.70627  -0.617375092593
 O1 0.350179 0.265603 0.61717  -0.617375092593
 O1 0.600344 0.706283 0.15271  -0.617375092593
 O1 0.649898 0.61717 0.26562  -0.617375092593
 O1 0.149639 0.20614 0.34727  -0.617375092593
 O1 0.100289 0.117125 0.23441  -0.617375092593
 O1 0.350453 0.652681 0.79419  -0.617375092593
 O1 0.399844 0.765727 0.88294  -0.617375092593
 O1 0.64975 0.794286 0.65257  -0.617375092593
 O1 0.600292 0.883036 0.7656  -0.617375092593
 O1 0.850391 0.347387 0.20611  -0.617375092593
 O1 0.899865 0.234466 0.11713  -0.617375092593
