#======================================================================

# CRYSTAL DATA

#----------------------------------------------------------------------

data_VESTA_phase_1


_pd_phase_name                         MOF
_cell_length_a                         13.74800
_cell_length_b                         14.89700
_cell_length_c                         14.67900
_cell_angle_alpha                      107.38700
_cell_angle_beta                       112.49600
_cell_angle_gamma                      99.97500
_symmetry_space_group_name_H-M         "P 1"
_symmetry_Int_Tables_number            1

loop_
_symmetry_equiv_pos_as_xyz
   "x, y, z"

loop_
   _atom_site_label
   _atom_site_fract_x
   _atom_site_fract_y
   _atom_site_fract_z
 _atom_site_charge
 Zn1 0.48169 0.817347 0.57253  1.08699052174
 Zn1 0.631638 0.030815 0.78657  1.08699052174
 Zn1 0.519151 0.182355 0.4273  1.08699052174
 Zn1 0.368993 0.968943 0.21347  1.08699052174
 Zn2 0.500931 0.999979 0.50011  1.14071052174
 Si1 0.773856 0.651182 0.12789  0.873540521739
 Si1 0.227142 0.34858 0.87212  0.873540521739
 H1 0.125057 0.745414 0.46608  0.0932667717391
 H1 0.920442 0.687805 0.35338  0.0932667717391
 H1 0.969442 0.735669 0.09563  0.0932667717391
 H1 0.172848 0.800335 0.21223  0.0932667717391
 H1 0.538077 0.638934 0.759  0.0932667717391
 H1 0.601489 0.564369 0.89285  0.0932667717391
 H1 0.85311 0.847463 0.12386  0.0932667717391
 H1 0.788301 0.920187 0.98959  0.0932667717391
 H1 0.525498 0.290851 0.94550  0.0932667717391
 H1 0.567287 0.471942 0.04029  0.0932667717391
 H1 0.902536 0.524609 0.07874  0.0932667717391
 H1 0.858541 0.34341 0.98239  0.0932667717391
 H1 0.603879 0.637889 0.37840  0.0932667717391
 H1 0.673911 0.563694 0.25071  0.0932667717391
 H1 0.722406 0.833935 0.19648  0.0932667717391
 H1 0.65712 0.906987 0.32634  0.0932667717391
 H2 0.448802 0.984997 0.63747  0.428800521739
 H1 0.875999 0.254814 0.53403  0.0932667717391
 H1 0.080612 0.312279 0.64672  0.0932667717391
 H1 0.031488 0.264091 0.90429  0.0932667717391
 H1 0.82808 0.19954 0.78767  0.0932667717391
 H1 0.462675 0.360682 0.24069  0.0932667717391
 H1 0.399374 0.435313 0.10718  0.0932667717391
 H1 0.147703 0.152276 0.87605  0.0932667717391
 H1 0.212365 0.0795 0.01030  0.0932667717391
 H1 0.475503 0.708962 0.05457  0.0932667717391
 H1 0.433754 0.527889 0.9597  0.0932667717391
 H1 0.098505 0.475139 0.92132  0.0932667717391
 H1 0.142455 0.656314 0.01769  0.0932667717391
 H1 0.397068 0.361702 0.62154  0.0932667717391
 H1 0.32704 0.435937 0.74921  0.0932667717391
 H1 0.278598 0.165764 0.80358  0.0932667717391
 H1 0.343941 0.092688 0.67379  0.0932667717391
 H2 0.552268 0.014928 0.36205  0.428800521739
 C1 0.285219 0.814965 0.41647  0.712798021739
 C2 0.161813 0.777621 0.34683  -0.122879478261
 C3 0.089878 0.744257 0.38529  -0.0373538532609
 C3 0.975016 0.711011 0.32092  -0.0373538532609
 C4 0.928732 0.706594 0.21529  -0.346119478261
 C3 0.0 0.738658 0.17735  -0.0373538532609
 C3 0.1172 0.775384 0.24263  -0.0373538532609
 C1 0.620361 0.831633 0.78874  0.712798021739
 C2 0.658662 0.784424 0.8665  -0.122879478261
 C3 0.606642 0.683924 0.83966  -0.0373538532609
 C3 0.642594 0.64284 0.91545  -0.0373538532609
 C4 0.730815 0.700593 0.01966  -0.346119478261
 C3 0.783192 0.80091 0.04453  -0.0373538532609
 C3 0.747808 0.842467 0.96953  -0.0373538532609
 C1 0.664195 0.198752 0.89834  0.712798021739
 C2 0.689523 0.306368 0.95816  -0.122879478261
 C3 0.607701 0.342838 0.9750  -0.0373538532609
 C3 0.631954 0.44485 0.02795  -0.0373538532609
 C4 0.73775 0.512493 0.06539  -0.346119478261
 C3 0.819291 0.474156 0.04916  -0.0373538532609
 C3 0.795657 0.372646 0.99582  -0.0373538532609
 C1 0.587971 0.825424 0.43989  0.712798021739
 C2 0.627032 0.777613 0.36139  -0.122879478261
 C3 0.630822 0.680223 0.33837  -0.0373538532609
 C3 0.669982 0.639021 0.26614  -0.0373538532609
 C4 0.705054 0.693307 0.21418  -0.346119478261
 C3 0.698089 0.790008 0.2364  -0.0373538532609
 C3 0.660602 0.831734 0.30917  -0.0373538532609
 C1 0.715808 0.185053 0.58351  0.712798021739
 C2 0.839194 0.222445 0.65318  -0.122879478261
 C3 0.911152 0.255877 0.61478  -0.0373538532609
 C3 0.026008 0.289031 0.67914  -0.0373538532609
 C4 0.072256 0.293303 0.78471  -0.346119478261
 C3 0.998763 0.261201 0.82261  -0.0373538532609
 C3 0.883762 0.224556 0.75733  -0.0373538532609
 C1 0.380301 0.167998 0.21117  0.712798021739
 C2 0.342046 0.215224 0.13336  -0.122879478261
 C3 0.394123 0.315722 0.16031  -0.0373538532609
 C3 0.358241 0.356839 0.08454  -0.0373538532609
 C4 0.270039 0.29912 0.98031  -0.346119478261
 C3 0.217608 0.198802 0.95540  -0.0373538532609
 C3 0.252907 0.157217 0.03039  -0.0373538532609
 C1 0.336762 0.801028 0.10174  0.712798021739
 C2 0.311475 0.69341 0.04192  -0.122879478261
 C3 0.393306 0.656963 0.02498  -0.0373538532609
 C3 0.369078 0.554954 0.97211  -0.0373538532609
 C4 0.263291 0.487283 0.93465  -0.346119478261
 C3 0.181748 0.525601 0.95091  -0.0373538532609
 C3 0.205354 0.627105 0.00425  -0.0373538532609
 C1 0.41312 0.174227 0.56017  0.712798021739
 C2 0.373995 0.222017 0.63864  -0.122879478261
 C3 0.370149 0.31939 0.66160  -0.0373538532609
 C3 0.330982 0.360617 0.73382  -0.0373538532609
 C4 0.295925 0.306368 0.78581  -0.346119478261
 C3 0.302914 0.209674 0.763  -0.0373538532609
 C3 0.340435 0.167932 0.69090  -0.0373538532609
 O1 0.320245 0.781898 0.49112  -0.631460906832
 O1 0.346555 0.874567 0.39918  -0.631460906832
 O1 0.674998 0.923915 0.82228  -0.631460906832
 O1 0.537649 0.778676 0.69621  -0.631460906832
 O1 0.739436 0.168847 0.87751  -0.631460906832
 O1 0.569893 0.13524 0.86487  -0.631460906832
 O1 0.553146 0.772318 0.48284  -0.631460906832
 O1 0.593223 0.915674 0.45970  -0.631460906832
 O2 0.514614 0.968758 0.63690  -0.565039478261
 O1 0.680681 0.218015 0.50880  -0.631460906832
 O1 0.654545 0.125428 0.60086  -0.631460906832
 O1 0.325499 0.075774 0.17773  -0.631460906832
 O1 0.463194 0.220874 0.30360  -0.631460906832
 O1 0.261444 0.830876 0.12249  -0.631460906832
 O1 0.43104 0.864572 0.13526  -0.631460906832
 O1 0.447693 0.227304 0.51705  -0.631460906832
 O1 0.408195 0.08407 0.5405  -0.631460906832
 O2 0.486522 0.03102 0.36301  -0.565039478261
