#======================================================================

# CRYSTAL DATA

#----------------------------------------------------------------------

data_VESTA_phase_1


_pd_phase_name                         MOF
_cell_length_a                         14.81600
_cell_length_b                         14.82200
_cell_length_c                         14.80900
_cell_angle_alpha                      109.43300
_cell_angle_beta                       109.37000
_cell_angle_gamma                      109.34800
_symmetry_space_group_name_H-M         "P 1"
_symmetry_Int_Tables_number            1

loop_
_symmetry_equiv_pos_as_xyz
   "x, y, z"

loop_
   _atom_site_label
   _atom_site_fract_x
   _atom_site_fract_y
   _atom_site_fract_z
 _atom_site_charge
 Zn1 0.751667 0.500857 0.25321  0.756417396594
 Zn1 0.248606 0.500256 0.75023  0.756417396594
 Zn1 0.250202 0.750511 0.49918  0.756417396594
 Zn1 0.750219 0.249882 0.50158  0.756417396594
 Zn1 0.501116 0.751397 0.24932  0.756417396594
 Zn1 0.498922 0.24948 0.75103  0.756417396594
 H1 0.659799 0.536049 0.42402  0.125955984164
 H1 0.115564 0.237305 0.59281  0.125955984164
 H1 0.885341 0.465541 0.12591  0.125955984164
 H1 0.342759 0.760528 0.87493  0.125955984164
 H1 0.124784 0.886931 0.46692  0.125955984164
 H1 0.875945 0.348805 0.76390  0.125955984164
 H1 0.41538 0.652704 0.52833  0.125955984164
 H1 0.592626 0.117587 0.23922  0.125955984164
 H1 0.239158 0.593571 0.11733  0.125955984164
 H1 0.525104 0.410443 0.64938  0.125955984164
 H1 0.761449 0.875448 0.34290  0.125955984164
 H1 0.475869 0.122854 0.88861  0.125955984164
 H1 0.238481 0.115735 0.58554  0.125955984164
 H1 0.531385 0.654996 0.41461  0.125955984164
 H1 0.760143 0.348642 0.8779  0.125955984164
 H1 0.479609 0.888836 0.12274  0.125955984164
 H1 0.661197 0.420928 0.53863  0.125955984164
 H1 0.114241 0.58161 0.23778  0.125955984164
 H1 0.886644 0.122145 0.47904  0.125955984164
 H1 0.344221 0.875678 0.76046  0.125955984164
 H1 0.122764 0.477958 0.88824  0.125955984164
 H1 0.876332 0.760483 0.34468  0.125955984164
 H1 0.41145 0.526524 0.65025  0.125955984164
 H1 0.746695 0.261333 0.22554  0.125955984164
 H1 0.827073 0.266919 0.3494  0.125955984164
 H1 0.878398 0.377828 0.3246  0.125955984164
 H1 0.926422 0.479088 0.68577  0.125955984164
 H1 0.994256 0.523496 0.61786  0.125955984164
 H1 0.07327 0.553415 0.75427  0.125955984164
 H1 0.919589 0.665861 0.47776  0.125955984164
 H1 0.057861 0.772474 0.53998  0.125955984164
 H1 0.032138 0.649844 0.54543  0.125955984164
 H1 0.204349 0.447222 0.52134  0.125955984164
 H1 0.208636 0.521274 0.44804  0.125955984164
 H1 0.095267 0.47306 0.46924  0.125955984164
 H1 0.531648 0.006337 0.63030  0.125955984164
 H1 0.476179 0.922802 0.68127  0.125955984164
 H1 0.548395 0.069296 0.76359  0.125955984164
 H1 0.478838 0.096111 0.46660  0.125955984164
 H1 0.519931 0.215004 0.4528  0.125955984164
 H1 0.444229 0.196603 0.52320  0.125955984164
 H1 0.23197 0.761504 0.26661  0.125955984164
 H1 0.358405 0.837977 0.27455  0.125955984164
 H1 0.335047 0.888778 0.38681  0.125955984164
 H1 0.750942 0.076327 0.55589  0.125955984164
 H1 0.693134 0.93063 0.48027  0.125955984164
 H1 0.615376 0.986551 0.52023  0.125955984164
 H1 0.480074 0.695847 0.93135  0.125955984164
 H1 0.518417 0.614646 0.9826  0.125955984164
 H1 0.555597 0.749573 0.07635  0.125955984164
 H1 0.308443 0.240146 0.79177  0.125955984164
 H1 0.24604 0.324594 0.80377  0.125955984164
 H1 0.381377 0.374271 0.90691  0.125955984164
 H1 0.52382 0.447801 0.20656  0.125955984164
 H1 0.469198 0.474176 0.09839  0.125955984164
 H1 0.451118 0.522357 0.21392  0.125955984164
 H1 0.636092 0.479154 0.91768  0.125955984164
 H1 0.766413 0.526754 0.0294  0.125955984164
 H1 0.668353 0.554543 0.05668  0.125955984164
 C1 0.686052 0.475458 0.42098  -0.0679110092034
 C1 0.057222 0.266453 0.59132  -0.0679110092034
 C1 0.943627 0.526443 0.21209  -0.0679110092034
 C1 0.315296 0.731823 0.78805  -0.0679110092034
 C1 0.211156 0.94436 0.52747  -0.0679110092034
 C1 0.788775 0.319536 0.73449  -0.0679110092034
 C1 0.414933 0.681825 0.47010  -0.0679110092034
 C1 0.591294 0.05899 0.26791  -0.0679110092034
 C1 0.267661 0.591568 0.05845  -0.0679110092034
 C1 0.467885 0.41157 0.67961  -0.0679110092034
 C1 0.732725 0.788726 0.31588  -0.0679110092034
 C1 0.533375 0.209823 0.94541  -0.0679110092034
 C1 0.2674 0.057493 0.58596  -0.0679110092034
 C1 0.472264 0.682919 0.41384  -0.0679110092034
 C1 0.731552 0.319318 0.79086  -0.0679110092034
 C1 0.535434 0.945854 0.21028  -0.0679110092034
 C1 0.686554 0.418417 0.47746  -0.0679110092034
 C1 0.056799 0.583838 0.26746  -0.0679110092034
 C1 0.944039 0.209504 0.53504  -0.0679110092034
 C1 0.315949 0.788727 0.73144  -0.0679110092034
 C1 0.210112 0.534552 0.94522  -0.0679110092034
 C1 0.789476 0.731935 0.31664  -0.0679110092034
 C1 0.41161 0.468849 0.67996  -0.0679110092034
 C2 0.593537 0.269619 0.05797  0.035450729927
 C3 0.804155 0.315942 0.31484  -0.475736770073
 C4 0.754273 0.369702 0.37066  0.44184156326
 C3 0.998382 0.490575 0.67480  -0.475736770073
 C4 0.999405 0.384866 0.63086  0.44184156326
 C3 0.00256 0.682787 0.49259  -0.475736770073
 C4 0.001325 0.631907 0.38644  0.44184156326
 C3 0.185341 0.508647 0.507  -0.475736770073
 C4 0.243266 0.614177 0.61339  0.44184156326
 C3 0.490535 0.999525 0.67943  -0.475736770073
 C4 0.385037 8e-06 0.63139  0.44184156326
 C3 0.508875 0.18529 0.50927  -0.475736770073
 C4 0.613979 0.244097 0.61552  0.44184156326
 C3 0.321648 0.814149 0.32182  -0.475736770073
 C4 0.371347 0.757547 0.37045  0.44184156326
 C3 0.675292 0.998513 0.49083  -0.475736770073
 C4 0.631175 0.000332 0.38554  0.44184156326
 C3 0.490128 0.675329 0.99746  -0.475736770073
 C4 0.385018 0.630903 0.99944  0.44184156326
 C3 0.323469 0.324637 0.81741  -0.475736770073
 C4 0.368987 0.370083 0.75668  0.44184156326
 C3 0.509531 0.509437 0.18856  -0.475736770073
 C4 0.614966 0.614654 0.24518  0.44184156326
 C3 0.677677 0.492051 0.00107  -0.475736770073
 C4 0.630199 0.38647 0.00130  0.44184156326
 N1 0.728688 0.444365 0.35340  -0.418194270073
 N1 0.092019 0.377207 0.65208  -0.418194270073
 N1 0.908726 0.557204 0.28739  -0.418194270073
 N1 0.269725 0.621616 0.71338  -0.418194270073
 N1 0.285536 0.908179 0.55665  -0.418194270073
 N1 0.714385 0.272365 0.6238  -0.418194270073
 N1 0.350988 0.728716 0.44233  -0.418194270073
 N1 0.651993 0.093221 0.37859  -0.418194270073
 N1 0.378135 0.652597 0.09257  -0.418194270073
 N1 0.440577 0.348922 0.72783  -0.418194270073
 N1 0.622606 0.714546 0.27107  -0.418194270073
 N1 0.558179 0.286202 0.90970  -0.418194270073
 N1 0.377188 0.092482 0.65188  -0.418194270073
 N1 0.444346 0.730491 0.35066  -0.418194270073
 N1 0.621172 0.271892 0.71558  -0.418194270073
 N1 0.560992 0.908924 0.28471  -0.418194270073
 N1 0.729486 0.351458 0.44534  -0.418194270073
 N1 0.093048 0.650724 0.37746  -0.418194270073
 N1 0.907682 0.284463 0.56041  -0.418194270073
 N1 0.270782 0.714344 0.62116  -0.418194270073
 N1 0.284386 0.559818 0.908  -0.418194270073
 N1 0.714982 0.622013 0.27224  -0.418194270073
 N1 0.348896 0.44223 0.72833  -0.418194270073
 N1 0.653748 0.378666 0.09484  -0.418194270073
