#======================================================================

# CRYSTAL DATA

#----------------------------------------------------------------------

data_VESTA_phase_1


_pd_phase_name                         MOF
_cell_length_a                         13.08700
_cell_length_b                         16.83800
_cell_length_c                         13.96000
_cell_angle_alpha                      105.88000
_cell_angle_beta                       89.81000
_cell_angle_gamma                      90.13300
_symmetry_space_group_name_H-M         "P 1"
_symmetry_Int_Tables_number            1

loop_
_symmetry_equiv_pos_as_xyz
   "x, y, z"

loop_
   _atom_site_label
   _atom_site_fract_x
   _atom_site_fract_y
   _atom_site_fract_z
 _atom_site_charge
 Zn1 0.501456 0.819568 0.81287  1.05349022059
 Zn1 0.44354 0.347324 0.10563  1.05349022059
 Zn1 0.004115 0.180293 0.68739  1.05349022059
 Zn1 0.942393 0.652223 0.39502  1.05349022059
 Zn1 0.502315 0.17829 0.18685  1.05349022059
 Zn1 0.559586 0.649991 0.89127  1.05349022059
 Zn1 0.0 0.819407 0.31243  1.05349022059
 Zn1 0.058235 0.347681 0.60461  1.05349022059
 H1 0.349686 0.492744 0.72079  0.126711887255
 H1 0.073936 0.495288 0.54848  0.126711887255
 H1 0.269506 0.709413 0.62879  0.126711887255
 H1 0.246666 0.040425 0.75705  0.126711887255
 H1 0.288881 0.279541 0.96373  0.126711887255
 H1 0.455123 0.066122 0.  0.126711887255
 H1 0.851048 0.505944 0.77623  0.126711887255
 H1 0.574268 0.503292 0.94883  0.126711887255
 H1 0.771106 0.290291 0.87123  0.126711887255
 H1 0.746602 0.959114 0.74467  0.126711887255
 H1 0.788267 0.720218 0.53746  0.126711887255
 H1 0.95791 0.933115 0.50055  0.126711887255
 H1 0.652516 0.50632 0.27573  0.126711887255
 H1 0.926306 0.504974 0.45116  0.126711887255
 H1 0.72948 0.291551 0.37290  0.126711887255
 H1 0.756052 0.956939 0.24280  0.126711887255
 H1 0.714143 0.718456 0.03472  0.126711887255
 H1 0.546842 0.932059 0.99854  0.126711887255
 H1 0.153348 0.493345 0.22530  0.126711887255
 H1 0.426739 0.494257 0.04742  0.126711887255
 H1 0.230618 0.707632 0.12633  0.126711887255
 H1 0.254358 0.040903 0.25384  0.126711887255
 H1 0.214279 0.279818 0.46172  0.126711887255
 H1 0.045268 0.067015 0.49966  0.126711887255
 C1 0.407347 0.65238 0.74002  0.673733345588
 C2 0.31854 0.606025 0.68239  -0.109879779412
 C3 0.299172 0.525303 0.68264  -0.0633314460784
 C4 0.209207 0.483388 0.63430  0.358985220588
 C3 0.142017 0.526678 0.58491  -0.0633314460784
 C2 0.164458 0.606091 0.58215  -0.109879779412
 C1 0.099623 0.64771 0.52101  0.673733345588
 C3 0.252567 0.646522 0.63085  -0.0633314460784
 C1 0.388114 0.956513 0.83150  0.673733345588
 C2 0.354632 0.044153 0.87583  -0.109879779412
 C3 0.28299 0.079145 0.82357  -0.0633314460784
 C2 0.258424 0.164049 0.8566  -0.109879779412
 C1 0.177145 0.199442 0.8035  0.673733345588
 C3 0.306884 0.213845 0.93941  -0.0633314460784
 C4 0.378365 0.178759 0.99377  0.358985220588
 C3 0.400419 0.092542 0.96078  -0.0633314460784
 C1 0.909133 0.347095 0.75894  0.673733345588
 C2 0.820062 0.393223 0.81627  -0.109879779412
 C3 0.800455 0.473566 0.81495  -0.0633314460784
 C4 0.710163 0.515271 0.86285  0.358985220588
 C3 0.642714 0.472126 0.91278  -0.0633314460784
 C2 0.665449 0.393094 0.91660  -0.109879779412
 C1 0.600828 0.351511 0.97846  0.673733345588
 C3 0.753971 0.352879 0.86836  -0.0633314460784
 C1 0.889896 0.042857 0.67108  0.673733345588
 C2 0.856128 0.955282 0.62644  -0.109879779412
 C3 0.783325 0.920408 0.67825  -0.0633314460784
 C2 0.758012 0.83563 0.644  -0.109879779412
 C1 0.675426 0.800394 0.69709  0.673733345588
 C3 0.806908 0.785831 0.56208  -0.0633314460784
 C4 0.879435 0.820832 0.50812  0.358985220588
 C3 0.902425 0.90688 0.54158  -0.0633314460784
 C1 0.594242 0.347304 0.25832  0.673733345588
 C2 0.682335 0.393929 0.31659  -0.109879779412
 C3 0.702294 0.474274 0.31515  -0.0633314460784
 C4 0.791821 0.516448 0.36401  0.358985220588
 C3 0.858218 0.473614 0.41473  -0.0633314460784
 C2 0.835004 0.394612 0.41864  -0.109879779412
 C1 0.898585 0.353287 0.48097  0.673733345588
 C3 0.7471 0.354059 0.36979  -0.0633314460784
 C1 0.614489 0.041546 0.16869  0.673733345588
 C2 0.647853 0.953792 0.12430  -0.109879779412
 C3 0.71972 0.918506 0.17610  -0.0633314460784
 C2 0.744715 0.833671 0.142  -0.109879779412
 C1 0.826826 0.797922 0.19420  0.673733345588
 C3 0.695852 0.784081 0.0595  -0.0633314460784
 C4 0.623684 0.819277 0.  0.358985220588
 C3 0.601702 0.90553 0.03944  -0.0633314460784
 C1 0.094774 0.652311 0.24182  0.673733345588
 C2 0.183107 0.605531 0.18354  -0.109879779412
 C3 0.203095 0.525337 0.18536  -0.0633314460784
 C4 0.292669 0.48319 0.1361  0.358985220588
 C3 0.35887 0.525753 0.08435  -0.0633314460784
 C2 0.335847 0.604637 0.08021  -0.109879779412
 C1 0.399716 0.645771 0.01724  0.673733345588
 C3 0.248079 0.645217 0.12965  -0.0633314460784
 C1 0.111955 0.957257 0.32874  0.673733345588
 C2 0.145963 0.044789 0.37296  -0.109879779412
 C3 0.218248 0.079625 0.32062  -0.0633314460784
 C2 0.243875 0.164378 0.35414  -0.109879779412
 C1 0.326473 0.199278 0.30140  0.673733345588
 C3 0.195519 0.214238 0.43706  -0.0633314460784
 C4 0.12343 0.179276 0.49145  0.358985220588
 C3 0.100379 0.093218 0.45822  -0.0633314460784
 O1 0.471134 0.610454 0.77467  -0.573306446078
 O1 0.408716 0.72944 0.74987  -0.573306446078
 O1 0.191176 0.409022 0.63844  -0.573306446078
 O1 0.006456 0.619123 0.5046  -0.573306446078
 O2 0.137866 0.702007 0.487  -0.472958112745
 O1 0.430561 0.919623 0.89145  -0.573306446078
 O2 0.377826 0.925779 0.7401  -0.472958112745
 O1 0.123929 0.142229 0.74171  -0.573306446078
 O2 0.164443 0.274907 0.82116  -0.472958112745
 O3 0.42301 0.224609 0.07417  -0.601934779412
 O1 0.972734 0.388954 0.7233  -0.573306446078
 O1 0.910983 0.270186 0.75006  -0.573306446078
 O1 0.69226 0.589339 0.85757  -0.573306446078
 O1 0.507241 0.378978 0.99448  -0.573306446078
 O2 0.639859 0.298166 0.  -0.472958112745
 O1 0.931956 0.080204 0.61110  -0.573306446078
 O2 0.879955 0.073031 0.76264  -0.472958112745
 O1 0.621782 0.857711 0.75837  -0.573306446078
 O2 0.662231 0.724917 0.67943  -0.472958112745
 O3 0.924013 0.774936 0.42743  -0.601934779412
 O1 0.532105 0.388914 0.22140  -0.573306446078
 O1 0.591862 0.270518 0.25015  -0.573306446078
 O1 0.81012 0.590505 0.35874  -0.573306446078
 O1 0.992875 0.379583 0.49513  -0.573306446078
 O2 0.858345 0.301256 0.5170  -0.472958112745
 O1 0.57368 0.078913 0.10828  -0.573306446078
 O2 0.623335 0.072129 0.26022  -0.472958112745
 O1 0.879768 0.854981 0.25663  -0.573306446078
 O2 0.839976 0.722436 0.17525  -0.472958112745
 O3 0.578374 0.773556 0.92590  -0.601934779412
 O1 0.031483 0.611011 0.27851  -0.573306446078
 O1 0.093285 0.729165 0.25008  -0.573306446078
 O1 0.311306 0.409399 0.14181  -0.573306446078
 O1 0.493186 0.617963 0.00078  -0.573306446078
 O2 0.36044 0.699035 0.98304  -0.472958112745
 O1 0.071316 0.919783 0.3893  -0.573306446078
 O2 0.120299 0.927039 0.2370  -0.472958112745
 O1 0.381994 0.141649 0.24277  -0.573306446078
 O2 0.33796 0.274705 0.31657  -0.472958112745
 O3 0.079284 0.225168 0.57241  -0.601934779412
