#======================================================================

# CRYSTAL DATA

#----------------------------------------------------------------------

data_VESTA_phase_1


_pd_phase_name                         MOF
_cell_length_a                         16.40100
_cell_length_b                         16.42500
_cell_length_c                         16.07900
_cell_angle_alpha                      90.01400
_cell_angle_beta                       89.99200
_cell_angle_gamma                      119.91200
_symmetry_space_group_name_H-M         "P 1"
_symmetry_Int_Tables_number            1

loop_
_symmetry_equiv_pos_as_xyz
   "x, y, z"

loop_
   _atom_site_label
   _atom_site_fract_x
   _atom_site_fract_y
   _atom_site_fract_z
 _atom_site_charge
 Sc1 0.735442 0.470758 0.75000  2.05687173077
 Sc1 0.735835 0.263864 0.7500  2.05687173077
 Sc1 0.52838 0.263979 0.75000  2.05687173077
 Sc1 0.264553 0.529266 0.25002  2.05687173077
 Sc1 0.264161 0.736161 0.24996  2.05687173077
 Sc1 0.471616 0.736044 0.25002  2.05687173077
 H1 0.398571 0.339255 0.94328  0.108051730769
 H1 0.93938 0.600275 0.94254  0.108051730769
 H1 0.660858 0.05937 0.94286  0.108051730769
 H1 0.601411 0.660778 0.44332  0.108051730769
 H1 0.060874 0.399998 0.44241  0.108051730769
 H1 0.339166 0.940922 0.44288  0.108051730769
 H1 0.058958 0.660735 0.05677  0.108051730769
 H1 0.339282 0.399605 0.0575  0.108051730769
 H1 0.601039 0.940039 0.05710  0.108051730769
 H1 0.94133 0.339321 0.55672  0.108051730769
 H1 0.660707 0.600437 0.55756  0.108051730769
 H1 0.399223 0.060292 0.55718  0.108051730769
 H1 0.601426 0.660766 0.05675  0.108051730769
 H1 0.060616 0.399749 0.05748  0.108051730769
 H1 0.339139 0.940651 0.05716  0.108051730769
 H1 0.398581 0.339247 0.55670  0.108051730769
 H1 0.939121 0.600028 0.5576  0.108051730769
 H1 0.660832 0.059106 0.55714  0.108051730769
 H1 0.941038 0.339289 0.94325  0.108051730769
 H1 0.660715 0.600416 0.94246  0.108051730769
 H1 0.398958 0.059982 0.94292  0.108051730769
 H1 0.058665 0.660705 0.44330  0.108051730769
 H1 0.339286 0.399588 0.44246  0.108051730769
 H1 0.600775 0.939735 0.44284  0.108051730769
 C1 0.442262 0.409522 0.96853  -0.0615332692308
 C1 0.966526 0.557106 0.96813  -0.0615332692308
 C1 0.590551 0.032789 0.96829  -0.0615332692308
 C1 0.557718 0.590506 0.46854  -0.0615332692308
 C1 0.033605 0.44305 0.46806  -0.0615332692308
 C1 0.40946 0.967386 0.46830  -0.0615332692308
 C1 0.032553 0.590481 0.03151  -0.0615332692308
 C1 0.409523 0.442836 0.03194  -0.0615332692308
 C1 0.557512 0.966894 0.03169  -0.0615332692308
 C1 0.967592 0.409556 0.53150  -0.0615332692308
 C1 0.590462 0.557185 0.53195  -0.0615332692308
 C1 0.442614 0.033284 0.53173  -0.0615332692308
 C1 0.557735 0.5905 0.03149  -0.0615332692308
 C1 0.033471 0.442918 0.03189  -0.0615332692308
 C1 0.409447 0.967236 0.03173  -0.0615332692308
 C1 0.442275 0.409518 0.53148  -0.0615332692308
 C1 0.966388 0.556975 0.53196  -0.0615332692308
 C1 0.590536 0.032638 0.53172  -0.0615332692308
 C1 0.967444 0.409543 0.96851  -0.0615332692308
 C1 0.590474 0.557186 0.9680  -0.0615332692308
 C1 0.442487 0.033131 0.96833  -0.0615332692308
 C1 0.032401 0.590469 0.46852  -0.0615332692308
 C1 0.409532 0.442839 0.4680  -0.0615332692308
 C1 0.557382 0.96674 0.46829  -0.0615332692308
 C2 0.568147 0.430829 0.8684  0.791231730769
 C3 0.533172 0.466258 0.9356  -0.145988269231
 C2 0.86273 0.43075 0.86846  0.791231730769
 C3 0.933092 0.466196 0.93567  -0.145988269231
 C2 0.56866 0.137045 0.86843  0.791231730769
 C3 0.533476 0.066795 0.9356  -0.145988269231
 C2 0.431811 0.569178 0.36845  0.791231730769
 C3 0.466807 0.533767 0.43566  -0.145988269231
 C2 0.137245 0.569415 0.36841  0.791231730769
 C3 0.066888 0.53393 0.43563  -0.145988269231
 C2 0.431171 0.862971 0.3684  0.791231730769
 C3 0.466414 0.933225 0.43563  -0.145988269231
 C2 0.137266 0.569275 0.13156  0.791231730769
 C3 0.066902 0.533827 0.06435  -0.145988269231
 C2 0.431848 0.569194 0.13160  0.791231730769
 C3 0.466826 0.533763 0.06437  -0.145988269231
 C2 0.431337 0.862978 0.13159  0.791231730769
 C3 0.466519 0.933221 0.06437  -0.145988269231
 C2 0.862751 0.430611 0.63161  0.791231730769
 C3 0.933111 0.466097 0.56439  -0.145988269231
 C2 0.568182 0.430846 0.6315  0.791231730769
 C3 0.533185 0.466259 0.56436  -0.145988269231
 C2 0.568826 0.137056 0.63160  0.791231730769
 C3 0.533587 0.066807 0.56438  -0.145988269231
 O1 0.651826 0.48443 0.84038  -0.767954935897
 O1 0.833216 0.347205 0.84047  -0.767954935897
 O1 0.51477 0.166909 0.84042  -0.767954935897
 O1 0.348125 0.515562 0.34041  -0.767954935897
 O1 0.166744 0.652936 0.34044  -0.767954935897
 O1 0.485037 0.833051 0.34040  -0.767954935897
 O1 0.167393 0.515668 0.1596  -0.767954935897
 O1 0.485798 0.652729 0.15958  -0.767954935897
 O1 0.347622 0.833267 0.15958  -0.767954935897
 O1 0.832582 0.484209 0.65966  -0.767954935897
 O1 0.514249 0.347324 0.65956  -0.767954935897
 O1 0.652514 0.166718 0.65961  -0.767954935897
 O1 0.34817 0.515593 0.15965  -0.767954935897
 O1 0.166778 0.652819 0.15955  -0.767954935897
 O1 0.485228 0.833113 0.15960  -0.767954935897
 O1 0.651869 0.484461 0.65961  -0.767954935897
 O1 0.833253 0.347091 0.65958  -0.767954935897
 O1 0.51496 0.166976 0.65962  -0.767954935897
 O1 0.832602 0.484357 0.84041  -0.767954935897
 O1 0.514198 0.347293 0.84044  -0.767954935897
 O1 0.652375 0.166755 0.84044  -0.767954935897
 O1 0.167413 0.515817 0.34036  -0.767954935897
 O1 0.485744 0.652701 0.34046  -0.767954935897
 O1 0.347483 0.833309 0.34041  -0.767954935897
 O2 0.666531 0.332807 0.75002  -1.38483826923
 O2 0.333465 0.667217 0.25000  -1.38483826923
