#======================================================================

# CRYSTAL DATA

#----------------------------------------------------------------------

data_VESTA_phase_1


_pd_phase_name                         MOF
_cell_length_a                         20.36500
_cell_length_b                         17.89400
_cell_length_c                         19.84500
_cell_angle_alpha                      90.02100
_cell_angle_beta                       90.01300
_cell_angle_gamma                      89.97700
_symmetry_space_group_name_H-M         "P 1"
_symmetry_Int_Tables_number            1

loop_
_symmetry_equiv_pos_as_xyz
   "x, y, z"

loop_
   _atom_site_label
   _atom_site_fract_x
   _atom_site_fract_y
   _atom_site_fract_z
 _atom_site_charge
 La1 0.483235 0.750011 0.74997  2.1997354902
 La1 0.983033 0.749617 0.75011  2.1997354902
 La1 0.26649 0.250697 0.24997  2.1997354902
 La1 0.767002 0.250005 0.24995  2.1997354902
 La1 0.016896 0.249906 0.25006  2.1997354902
 La1 0.517029 0.250384 0.25001  2.1997354902
 La1 0.234136 0.749778 0.75075  2.1997354902
 La1 0.733144 0.749982 0.74999  2.1997354902
 H1 0.063662 0.947672 0.687  0.104790767974
 H1 0.563603 0.947813 0.68790  0.104790767974
 H1 0.186039 0.85953 0.54028  0.104790767974
 H1 0.685725 0.860004 0.53832  0.104790767974
 H1 0.39498 0.939657 0.51042  0.104790767974
 H1 0.895127 0.939206 0.51016  0.104790767974
 H1 0.087258 0.01268 0.58059  0.104790767974
 H1 0.587251 0.012799 0.58078  0.104790767974
 H1 0.002932 0.743919 0.5657  0.104790767974
 H1 0.502525 0.74511 0.56575  0.104790767974
 H1 0.154461 0.893064 0.42240  0.104790767974
 H1 0.653448 0.892775 0.42047  0.104790767974
 H1 0.379964 0.878854 0.62126  0.104790767974
 H1 0.880165 0.878377 0.62100  0.104790767974
 H1 0.047146 0.850817 0.37637  0.104790767974
 H1 0.545815 0.85032 0.3753  0.104790767974
 H1 0.470442 0.775368 0.44788  0.104790767974
 H1 0.97147 0.775144 0.44793  0.104790767974
 H1 0.063521 0.5521 0.8126  0.104790767974
 H1 0.563476 0.551918 0.8118  0.104790767974
 H1 0.186097 0.640752 0.96187  0.104790767974
 H1 0.685859 0.639788 0.96158  0.104790767974
 H1 0.395058 0.560511 0.98941  0.104790767974
 H1 0.894803 0.560141 0.98996  0.104790767974
 H1 0.087243 0.487294 0.91985  0.104790767974
 H1 0.587206 0.486996 0.91896  0.104790767974
 H1 0.002335 0.754628 0.9343  0.104790767974
 H1 0.502673 0.754931 0.93430  0.104790767974
 H1 0.153977 0.60785 0.07972  0.104790767974
 H1 0.653651 0.606929 0.0794  0.104790767974
 H1 0.379957 0.62124 0.87852  0.104790767974
 H1 0.879741 0.620853 0.87906  0.104790767974
 H1 0.046086 0.649636 0.12472  0.104790767974
 H1 0.54606 0.649466 0.12459  0.104790767974
 H1 0.470664 0.724609 0.05216  0.104790767974
 H1 0.970385 0.724169 0.05214  0.104790767974
 H1 0.186842 0.052459 0.18792  0.104790767974
 H1 0.686479 0.0521 0.18786  0.104790767974
 H1 0.064296 0.140166 0.0379  0.104790767974
 H1 0.564305 0.140258 0.03812  0.104790767974
 H1 0.356361 0.061026 0.  0.104790767974
 H1 0.855059 0.060124 0.  0.104790767974
 H1 0.163778 0.987631 0.08053  0.104790767974
 H1 0.662751 0.98716 0.08068  0.104790767974
 H1 0.247544 0.254845 0.06602  0.104790767974
 H1 0.747627 0.254859 0.06591  0.104790767974
 H1 0.096923 0.107279 0.92017  0.104790767974
 H1 0.596634 0.107527 0.92026  0.104790767974
 H1 0.370777 0.121656 0.12248  0.104790767974
 H1 0.870129 0.120934 0.12129  0.104790767974
 H1 0.204774 0.149488 0.87550  0.104790767974
 H1 0.704365 0.14982 0.87536  0.104790767974
 H1 0.279977 0.224422 0.94831  0.104790767974
 H1 0.779767 0.224614 0.9480  0.104790767974
 H1 0.184104 0.448548 0.31360  0.104790767974
 H1 0.686584 0.448175 0.31197  0.104790767974
 H1 0.063853 0.359406 0.46209  0.104790767974
 H1 0.564923 0.360346 0.46184  0.104790767974
 H1 0.355295 0.440569 0.48850  0.104790767974
 H1 0.855051 0.43966 0.48960  0.104790767974
 H1 0.161736 0.513059 0.42132  0.104790767974
 H1 0.662903 0.513178 0.41913  0.104790767974
 H1 0.247678 0.245796 0.43409  0.104790767974
 H1 0.7478 0.2447 0.43400  0.104790767974
 H1 0.096212 0.392344 0.57988  0.104790767974
 H1 0.597504 0.392995 0.5796  0.104790767974
 H1 0.368991 0.38027 0.37720  0.104790767974
 H1 0.870099 0.378832 0.37872  0.104790767974
 H1 0.204244 0.350701 0.62465  0.104790767974
 H1 0.705121 0.350132 0.62450  0.104790767974
 H1 0.279884 0.276285 0.55187  0.104790767974
 H1 0.780178 0.274858 0.55179  0.104790767974
 H1 0.435949 0.052831 0.31256  0.104790767974
 H1 0.936526 0.051917 0.31202  0.104790767974
 H1 0.314691 0.141755 0.4613  0.104790767974
 H1 0.814479 0.139776 0.46164  0.104790767974
 H1 0.104963 0.060246 0.48965  0.104790767974
 H1 0.605059 0.060115 0.489  0.104790767974
 H1 0.412413 0.987753 0.41966  0.104790767974
 H1 0.91286 0.986844 0.41910  0.104790767974
 H1 0.498079 0.256302 0.43405  0.104790767974
 H1 0.99757 0.254882 0.43416  0.104790767974
 H1 0.347323 0.107829 0.57883  0.104790767974
 H1 0.846837 0.107008 0.5794  0.104790767974
 H1 0.119995 0.121143 0.37886  0.104790767974
 H1 0.619931 0.121082 0.37880  0.104790767974
 H1 0.455234 0.149491 0.62381  0.104790767974
 H1 0.954439 0.149595 0.62454  0.104790767974
 H1 0.029702 0.224642 0.55200  0.104790767974
 H1 0.530533 0.22486 0.55155  0.104790767974
 H1 0.436698 0.448507 0.1877  0.104790767974
 H1 0.93645 0.447812 0.18826  0.104790767974
 H1 0.314272 0.360021 0.03842  0.104790767974
 H1 0.814361 0.359826 0.03813  0.104790767974
 H1 0.105081 0.440006 0.  0.104790767974
 H1 0.604951 0.43938 0.  0.104790767974
 H1 0.41299 0.513388 0.08055  0.104790767974
 H1 0.912683 0.512796 0.08114  0.104790767974
 H1 0.497519 0.245 0.06577  0.104790767974
 H1 0.997709 0.245153 0.0659  0.104790767974
 H1 0.346469 0.392807 0.92056  0.104790767974
 H1 0.846787 0.392601 0.92034  0.104790767974
 H1 0.120187 0.379142 0.12168  0.104790767974
 H1 0.620034 0.3787 0.12088  0.104790767974
 H1 0.454078 0.350295 0.87542  0.104790767974
 H1 0.954575 0.350293 0.87549  0.104790767974
 H1 0.029923 0.27544 0.94819  0.104790767974
 H1 0.529507 0.275252 0.94790  0.104790767974
 H1 0.316084 0.948142 0.81298  0.104790767974
 H1 0.813498 0.947882 0.81209  0.104790767974
 H1 0.436523 0.859937 0.9621  0.104790767974
 H1 0.935721 0.859619 0.96200  0.104790767974
 H1 0.146385 0.940595 0.98934  0.104790767974
 H1 0.644975 0.939618 0.98960  0.104790767974
 H1 0.339157 0.013326 0.92022  0.104790767974
 H1 0.837223 0.012763 0.91931  0.104790767974
 H1 0.253245 0.745115 0.93479  0.104790767974
 H1 0.75239 0.745075 0.93407  0.104790767974
 H1 0.404239 0.893072 0.07992  0.104790767974
 H1 0.903362 0.892264 0.07986  0.104790767974
 H1 0.131974 0.879588 0.87846  0.104790767974
 H1 0.629899 0.878886 0.87868  0.104790767974
 H1 0.29653 0.850937 0.12498  0.104790767974
 H1 0.795609 0.849961 0.12471  0.104790767974
 H1 0.221116 0.775841 0.05254  0.104790767974
 H1 0.720221 0.775228 0.05193  0.104790767974
 H1 0.316089 0.551864 0.687  0.104790767974
 H1 0.813537 0.552016 0.68788  0.104790767974
 H1 0.435938 0.640678 0.53778  0.104790767974
 H1 0.935621 0.640204 0.53804  0.104790767974
 H1 0.144903 0.559606 0.51287  0.104790767974
 H1 0.645057 0.560547 0.51026  0.104790767974
 H1 0.33852 0.487326 0.58009  0.104790767974
 H1 0.837281 0.487188 0.58065  0.104790767974
 H1 0.252243 0.754355 0.56636  0.104790767974
 H1 0.752361 0.755052 0.56587  0.104790767974
 H1 0.403235 0.607798 0.42006  0.104790767974
 H1 0.903276 0.607676 0.42014  0.104790767974
 H1 0.131168 0.619972 0.62415  0.104790767974
 H1 0.629952 0.621214 0.62120  0.104790767974
 H1 0.295079 0.64947 0.37565  0.104790767974
 H1 0.79557 0.650204 0.37523  0.104790767974
 H1 0.219665 0.723901 0.44867  0.104790767974
 H1 0.720204 0.725016 0.44798  0.104790767974
 C1 0.096821 0.798831 0.55972  -0.0881945098039
 C1 0.596477 0.799754 0.55875  -0.0881945098039
 C2 0.028987 0.948991 0.64608  -0.0839395098039
 C2 0.528906 0.949221 0.64631  -0.0839395098039
 C3 0.139455 0.840998 0.51914  -0.0913162955182
 C3 0.638957 0.841463 0.51761  -0.0913162955182
 C1 0.49392 0.982799 0.53201  -0.0881945098039
 C1 0.994022 0.982479 0.53177  -0.0881945098039
 C3 0.434381 0.943801 0.54726  -0.0913162955182
 C3 0.93453 0.94338 0.54700  -0.0913162955182
 C3 0.040444 0.984027 0.58588  -0.0913162955182
 C3 0.540395 0.984235 0.58609  -0.0913162955182
 C3 0.036258 0.77543 0.53362  -0.0913162955182
 C3 0.535714 0.776305 0.53320  -0.0913162955182
 C3 0.121683 0.85938 0.45344  -0.0913162955182
 C3 0.620808 0.859392 0.45193  -0.0913162955182
 C2 0.424185 0.909472 0.60804  -0.0839395098039
 C2 0.924363 0.909039 0.60778  -0.0839395098039
 C3 0.061311 0.835558 0.42755  -0.0913162955182
 C3 0.56025 0.835475 0.4265  -0.0913162955182
 C3 0.018768 0.793478 0.46763  -0.0913162955182
 C3 0.517883 0.79381 0.46718  -0.0913162955182
 C4 0.115588 0.780045 0.6304  0.797065490196
 C4 0.615737 0.781433 0.62947  0.797065490196
 C1 0.096545 0.700465 0.94136  -0.0881945098039
 C1 0.5966 0.700145 0.9412  -0.0881945098039
 C2 0.028823 0.550712 0.85423  -0.0839395098039
 C2 0.528836 0.55062 0.85344  -0.0839395098039
 C3 0.139232 0.659026 0.98255  -0.0913162955182
 C3 0.639104 0.658348 0.9823  -0.0913162955182
 C1 0.493984 0.517267 0.96780  -0.0881945098039
 C1 0.99388 0.517241 0.96852  -0.0881945098039
 C3 0.434444 0.55633 0.95257  -0.0913162955182
 C3 0.93426 0.556097 0.95319  -0.0913162955182
 C3 0.040346 0.515781 0.91448  -0.0913162955182
 C3 0.540375 0.515645 0.91367  -0.0913162955182
 C3 0.035664 0.723593 0.9668  -0.0913162955182
 C3 0.535863 0.723643 0.96681  -0.0913162955182
 C3 0.121164 0.641022 0.04823  -0.0913162955182
 C3 0.621 0.64039 0.04800  -0.0913162955182
 C2 0.424186 0.590593 0.89176  -0.0839395098039
 C2 0.924026 0.590346 0.8923  -0.0839395098039
 C3 0.060465 0.66457 0.07353  -0.0913162955182
 C3 0.560462 0.664345 0.073  -0.0913162955182
 C3 0.017903 0.705998 0.03288  -0.0913162955182
 C3 0.51808 0.706116 0.03283  -0.0913162955182
 C4 0.115725 0.718801 0.87063  0.797065490196
 C4 0.615804 0.718503 0.87051  0.797065490196
 C1 0.153553 0.200289 0.05869  -0.0881945098039
 C1 0.653615 0.200338 0.05875  -0.0881945098039
 C2 0.221739 0.05115 0.14651  -0.0839395098039
 C2 0.721154 0.050688 0.14626  -0.0839395098039
 C3 0.111157 0.158617 0.0173  -0.0913162955182
 C3 0.611116 0.158732 0.01750  -0.0913162955182
 C1 0.257308 0.017845 0.03235  -0.0881945098039
 C1 0.756067 0.017135 0.0319  -0.0881945098039
 C3 0.316763 0.056824 0.04801  -0.0913162955182
 C3 0.815638 0.056073 0.04721  -0.0913162955182
 C3 0.21058 0.016235 0.08617  -0.0913162955182
 C3 0.70962 0.015701 0.08601  -0.0913162955182
 C3 0.214421 0.223647 0.03337  -0.0913162955182
 C3 0.714424 0.223716 0.03330  -0.0913162955182
 C3 0.129502 0.140626 0.95176  -0.0913162955182
 C3 0.629291 0.140834 0.95180  -0.0913162955182
 C2 0.326638 0.091039 0.10893  -0.0839395098039
 C2 0.825878 0.090368 0.10803  -0.0839395098039
 C3 0.190178 0.164412 0.92664  -0.0913162955182
 C3 0.689904 0.164658 0.92655  -0.0913162955182
 C3 0.232451 0.206067 0.9674  -0.0913162955182
 C3 0.732286 0.206235 0.96728  -0.0913162955182
 C4 0.134154 0.218647 0.12936  0.797065490196
 C4 0.634334 0.21864 0.12948  0.797065490196
 C1 0.153393 0.299735 0.44138  -0.0881945098039
 C1 0.653985 0.299725 0.44119  -0.0881945098039
 C2 0.219369 0.449965 0.35469  -0.0839395098039
 C2 0.721239 0.449489 0.35361  -0.0839395098039
 C3 0.110777 0.341165 0.48266  -0.0913162955182
 C3 0.611683 0.341607 0.48244  -0.0913162955182
 C1 0.255793 0.483103 0.46862  -0.0881945098039
 C1 0.756138 0.482933 0.46798  -0.0881945098039
 C3 0.315316 0.444558 0.45231  -0.0913162955182
 C3 0.815664 0.443841 0.45275  -0.0913162955182
 C3 0.208598 0.484682 0.41521  -0.0913162955182
 C3 0.709725 0.484507 0.4138  -0.0913162955182
 C3 0.214365 0.276721 0.46675  -0.0913162955182
 C3 0.714738 0.276035 0.46661  -0.0913162955182
 C3 0.128978 0.359198 0.54831  -0.0913162955182
 C3 0.630001 0.35947 0.54810  -0.0913162955182
 C2 0.324805 0.410557 0.39124  -0.0839395098039
 C2 0.825887 0.409523 0.39194  -0.0839395098039
 C3 0.189755 0.335731 0.57349  -0.0913162955182
 C3 0.690551 0.335323 0.57333  -0.0913162955182
 C3 0.232266 0.29436 0.53273  -0.0913162955182
 C3 0.732744 0.293489 0.53260  -0.0913162955182
 C4 0.134104 0.281303 0.37068  0.797065490196
 C4 0.634572 0.281459 0.3704  0.797065490196
 C1 0.404007 0.201932 0.4410  -0.0881945098039
 C1 0.903664 0.200143 0.44119  -0.0881945098039
 C2 0.470751 0.051229 0.35406  -0.0839395098039
 C2 0.971182 0.050554 0.35365  -0.0839395098039
 C3 0.361574 0.159981 0.48201  -0.0913162955182
 C3 0.861241 0.158363 0.48233  -0.0913162955182
 C1 0.006079 0.016998 0.46797  -0.0881945098039
 C1 0.505944 0.017368 0.46822  -0.0881945098039
 C3 0.065586 0.056092 0.45279  -0.0913162955182
 C3 0.56554 0.056198 0.45287  -0.0913162955182
 C3 0.459337 0.016145 0.41425  -0.0913162955182
 C3 0.959684 0.015488 0.41384  -0.0913162955182
 C3 0.464926 0.224936 0.46650  -0.0913162955182
 C3 0.96442 0.223639 0.46671  -0.0913162955182
 C3 0.379926 0.141395 0.54749  -0.0913162955182
 C3 0.879431 0.140445 0.5480  -0.0913162955182
 C2 0.075793 0.090464 0.39204  -0.0839395098039
 C2 0.575668 0.090585 0.3921  -0.0839395098039
 C3 0.440643 0.16487 0.57279  -0.0913162955182
 C3 0.939977 0.164425 0.57335  -0.0913162955182
 C3 0.48297 0.206754 0.53231  -0.0913162955182
 C3 0.982292 0.206148 0.53272  -0.0913162955182
 C4 0.384565 0.220937 0.37049  0.797065490196
 C4 0.884356 0.218524 0.37049  0.797065490196
 C1 0.403548 0.299719 0.05881  -0.0881945098039
 C1 0.903684 0.299709 0.05878  -0.0881945098039
 C2 0.471297 0.449673 0.14606  -0.0839395098039
 C2 0.971121 0.449246 0.1466  -0.0839395098039
 C3 0.361033 0.341465 0.01769  -0.0913162955182
 C3 0.8612 0.341348 0.01753  -0.0913162955182
 C1 0.006003 0.482851 0.03237  -0.0881945098039
 C1 0.506118 0.482863 0.03165  -0.0881945098039
 C3 0.065633 0.443987 0.04764  -0.0913162955182
 C3 0.565609 0.443695 0.04686  -0.0913162955182
 C3 0.459766 0.484617 0.08581  -0.0913162955182
 C3 0.959569 0.484269 0.08645  -0.0913162955182
 C3 0.464298 0.27623 0.03324  -0.0913162955182
 C3 0.964527 0.276326 0.0333  -0.0913162955182
 C3 0.379132 0.359386 0.95200  -0.0913162955182
 C3 0.87943 0.359268 0.95188  -0.0913162955182
 C2 0.075891 0.409651 0.10841  -0.0839395098039
 C2 0.575851 0.409451 0.10768  -0.0839395098039
 C3 0.439682 0.335445 0.92662  -0.0913162955182
 C3 0.940078 0.33544 0.92666  -0.0913162955182
 C3 0.482077 0.293723 0.96721  -0.0913162955182
 C3 0.982442 0.293829 0.96738  -0.0913162955182
 C4 0.384356 0.281442 0.12955  0.797065490196
 C4 0.884359 0.281389 0.12947  0.797065490196
 C1 0.347248 0.79968 0.94176  -0.0881945098039
 C1 0.846402 0.799582 0.94130  -0.0881945098039
 C2 0.281149 0.949697 0.85435  -0.0839395098039
 C2 0.778835 0.949242 0.85371  -0.0839395098039
 C3 0.389741 0.84149 0.98285  -0.0913162955182
 C3 0.8889 0.84114 0.98259  -0.0913162955182
 C1 0.245559 0.983394 0.96842  -0.0881945098039
 C1 0.743932 0.982705 0.96806  -0.0881945098039
 C3 0.186044 0.944523 0.95280  -0.0913162955182
 C3 0.684377 0.943735 0.95278  -0.0913162955182
 C3 0.292314 0.984794 0.91462  -0.0913162955182
 C3 0.790368 0.984194 0.91397  -0.0913162955182
 C3 0.286453 0.776379 0.96730  -0.0913162955182
 C3 0.785586 0.776186 0.9667  -0.0913162955182
 C3 0.371587 0.859623 0.04849  -0.0913162955182
 C3 0.870705 0.858996 0.04829  -0.0913162955182
 C2 0.176162 0.910138 0.89197  -0.0839395098039
 C2 0.674138 0.909475 0.8919  -0.0839395098039
 C3 0.310986 0.835881 0.07384  -0.0913162955182
 C3 0.810082 0.835161 0.0735  -0.0913162955182
 C3 0.268597 0.794132 0.03326  -0.0913162955182
 C3 0.767705 0.793625 0.03274  -0.0913162955182
 C4 0.366454 0.781123 0.87108  0.797065490196
 C4 0.865695 0.781361 0.87056  0.797065490196
 C1 0.346452 0.700322 0.55878  -0.0881945098039
 C1 0.846347 0.700411 0.55869  -0.0881945098039
 C2 0.280827 0.550379 0.64670  -0.0839395098039
 C2 0.778882 0.550713 0.64624  -0.0839395098039
 C3 0.388955 0.658925 0.5173  -0.0913162955182
 C3 0.888827 0.658795 0.51741  -0.0913162955182
 C1 0.244428 0.51715 0.53278  -0.0881945098039
 C1 0.744006 0.51735 0.53185  -0.0881945098039
 C3 0.184879 0.555659 0.54907  -0.0913162955182
 C3 0.684451 0.556373 0.54710  -0.0913162955182
 C3 0.291627 0.515641 0.586  -0.0913162955182
 C3 0.790427 0.515783 0.58597  -0.0913162955182
 C3 0.285418 0.723371 0.53360  -0.0913162955182
 C3 0.78555 0.723913 0.53324  -0.0913162955182
 C3 0.370563 0.640931 0.45175  -0.0913162955182
 C3 0.87064 0.641002 0.45170  -0.0913162955182
 C2 0.175361 0.589683 0.61012  -0.0839395098039
 C2 0.674197 0.590602 0.60795  -0.0839395098039
 C3 0.309714 0.664416 0.42677  -0.0913162955182
 C3 0.810039 0.664955 0.4264  -0.0913162955182
 C3 0.26732 0.705776 0.46767  -0.0913162955182
 C3 0.767676 0.706538 0.46719  -0.0913162955182
 C4 0.365923 0.718696 0.62944  0.797065490196
 C4 0.865636 0.718586 0.62945  0.797065490196
 N1 0.471473 0.910952 0.65736  0.374715490196
 N1 0.971631 0.910621 0.65713  0.374715490196
 N1 0.471437 0.58902 0.84242  0.374715490196
 N1 0.971345 0.58887 0.84309  0.374715490196
 N1 0.279077 0.089473 0.15796  0.374715490196
 N1 0.778593 0.088947 0.15734  0.374715490196
 N1 0.276763 0.411934 0.34267  0.374715490196
 N1 0.778626 0.411067 0.34259  0.374715490196
 N1 0.02856 0.088907 0.34265  0.374715490196
 N1 0.528242 0.089336 0.34291  0.374715490196
 N1 0.028591 0.411036 0.15771  0.374715490196
 N1 0.52864 0.411161 0.15706  0.374715490196
 N1 0.223776 0.911414 0.84299  0.374715490196
 N1 0.721408 0.910962 0.8426  0.374715490196
 N1 0.2234 0.588362 0.65868  0.374715490196
 N1 0.721453 0.58904 0.65730  0.374715490196
 O1 0.461524 0.875165 0.71632  -0.720074509804
 O1 0.961786 0.874766 0.71606  -0.720074509804
 O2 0.072508 0.750409 0.66920  -0.755604509804
 O2 0.572687 0.753171 0.6690  -0.755604509804
 O2 0.174252 0.793261 0.64932  -0.755604509804
 O2 0.674816 0.793713 0.64741  -0.755604509804
 O1 0.461473 0.624828 0.78347  -0.720074509804
 O1 0.96144 0.624659 0.78412  -0.720074509804
 O2 0.072604 0.746972 0.83104  -0.755604509804
 O2 0.572713 0.746765 0.83093  -0.755604509804
 O2 0.174819 0.706542 0.85269  -0.755604509804
 O2 0.674888 0.706248 0.8525  -0.755604509804
 O1 0.288636 0.125233 0.21702  -0.720074509804
 O1 0.788552 0.124786 0.21630  -0.720074509804
 O2 0.177162 0.24696 0.16900  -0.755604509804
 O2 0.677404 0.246848 0.16911  -0.755604509804
 O2 0.075115 0.20621 0.14730  -0.755604509804
 O2 0.575269 0.206304 0.14741  -0.755604509804
 O1 0.28588 0.376191 0.2835  -0.720074509804
 O1 0.788553 0.375182 0.28365  -0.720074509804
 O2 0.177123 0.252937 0.33109  -0.755604509804
 O2 0.677524 0.253084 0.33082  -0.755604509804
 O2 0.075054 0.29375 0.35268  -0.755604509804
 O2 0.575483 0.293866 0.35262  -0.755604509804
 O1 0.038484 0.124792 0.28374  -0.720074509804
 O1 0.538095 0.125187 0.28397  -0.720074509804
 O2 0.427498 0.249553 0.33098  -0.755604509804
 O2 0.927383 0.246802 0.33089  -0.755604509804
 O2 0.325414 0.208931 0.35264  -0.755604509804
 O2 0.82527 0.20624 0.35256  -0.755604509804
 O1 0.038559 0.37513 0.21660  -0.720074509804
 O1 0.538556 0.375357 0.21602  -0.720074509804
 O2 0.427443 0.253129 0.16910  -0.755604509804
 O2 0.927403 0.253169 0.1691  -0.755604509804
 O2 0.325277 0.293751 0.14751  -0.755604509804
 O2 0.825262 0.293708 0.14735  -0.755604509804
 O1 0.214205 0.875369 0.78409  -0.720074509804
 O1 0.711452 0.875169 0.78364  -0.720074509804
 O2 0.32348 0.752234 0.83175  -0.755604509804
 O2 0.822654 0.75313 0.83090  -0.755604509804
 O2 0.425306 0.793963 0.85277  -0.755604509804
 O2 0.92477 0.793679 0.85266  -0.755604509804
 O1 0.214206 0.62414 0.71777  -0.720074509804
 O1 0.711482 0.624801 0.71630  -0.720074509804
 O2 0.322972 0.747049 0.66912  -0.755604509804
 O2 0.822589 0.746833 0.66909  -0.755604509804
 O2 0.424995 0.706229 0.64731  -0.755604509804
 O2 0.924695 0.70617 0.64739  -0.755604509804
