#======================================================================

# CRYSTAL DATA

#----------------------------------------------------------------------

data_VESTA_phase_1


_pd_phase_name                         MOF
_cell_length_a                         13.84100
_cell_length_b                         13.84100
_cell_length_c                         13.84100
_cell_angle_alpha                      108.00700
_cell_angle_beta                       108.00300
_cell_angle_gamma                      108.00200
_symmetry_space_group_name_H-M         "P 1"
_symmetry_Int_Tables_number            1

loop_
_symmetry_equiv_pos_as_xyz
   "x, y, z"

loop_
   _atom_site_label
   _atom_site_fract_x
   _atom_site_fract_y
   _atom_site_fract_z
 _atom_site_charge
 Cd1 0.955053 0.461504 0.59885  0.934514733333
 Cd1 0.598812 0.9551 0.46151  0.934514733333
 Cd1 0.461485 0.598844 0.95512  0.934514733333
 Cd1 0.044916 0.538512 0.40118  0.934514733333
 Cd1 0.401158 0.044917 0.53851  0.934514733333
 Cd1 0.538485 0.40117 0.04490  0.934514733333
 H1 0.712597 0.485307 0.41362  0.104544108333
 H1 0.550121 0.128938 0.24281  0.104544108333
 H1 0.701106 0.090455 0.36055  0.104544108333
 H1 0.836703 0.195653 0.39750  0.104544108333
 H1 0.016761 0.459961 0.86223  0.104544108333
 H1 0.008797 0.393248 0.00936  0.104544108333
 H1 0.883941 0.19374 0.95408  0.104544108333
 H1 0.762617 0.053939 0.75078  0.104544108333
 H1 0.413598 0.712637 0.48531  0.104544108333
 H1 0.242814 0.550133 0.12894  0.104544108333
 H1 0.360531 0.701132 0.09045  0.104544108333
 H1 0.397461 0.836731 0.19565  0.104544108333
 H1 0.862172 0.016781 0.45997  0.104544108333
 H1 0.009378 0.008821 0.39326  0.104544108333
 H1 0.954048 0.883992 0.19375  0.104544108333
 H1 0.75076 0.762648 0.05395  0.104544108333
 H1 0.485302 0.413632 0.7126  0.104544108333
 H1 0.128941 0.242824 0.55015  0.104544108333
 H1 0.090446 0.360552 0.70115  0.104544108333
 H1 0.195637 0.397494 0.83675  0.104544108333
 H1 0.459939 0.86221 0.01677  0.104544108333
 H1 0.393233 0.009373 0.00880  0.104544108333
 H1 0.19373 0.954082 0.88399  0.104544108333
 H1 0.053936 0.750787 0.76265  0.104544108333
 H1 0.287371 0.514708 0.58641  0.104544108333
 H1 0.449851 0.871077 0.75721  0.104544108333
 H1 0.298864 0.90956 0.63947  0.104544108333
 H1 0.163267 0.804363 0.6025  0.104544108333
 H1 0.983204 0.540056 0.137  0.104544108333
 H1 0.99117 0.606769 0.99066  0.104544108333
 H1 0.11603 0.806275 0.04594  0.104544108333
 H1 0.237358 0.946075 0.24924  0.104544108333
 H1 0.586372 0.28738 0.51471  0.104544108333
 H1 0.757158 0.449882 0.87109  0.104544108333
 H1 0.639439 0.298884 0.90957  0.104544108333
 H1 0.60251 0.163285 0.80437  0.104544108333
 H1 0.137798 0.983238 0.5400  0.104544108333
 H1 0.990592 0.991196 0.60676  0.104544108333
 H1 0.045923 0.116022 0.8062  0.104544108333
 H1 0.249211 0.237364 0.94608  0.104544108333
 H1 0.514669 0.586385 0.28737  0.104544108333
 H1 0.87103 0.757192 0.44987  0.104544108333
 H1 0.909524 0.639463 0.29887  0.104544108333
 H1 0.804333 0.602522 0.16327  0.104544108333
 H1 0.540031 0.137806 0.9832  0.104544108333
 H1 0.606736 0.990643 0.99122  0.104544108333
 H1 0.806239 0.045933 0.11603  0.104544108333
 H1 0.946034 0.249227 0.23737  0.104544108333
 C1 0.692939 0.396501 0.38769  0.244184733333
 C1 0.60948 0.217131 0.30019  0.244184733333
 C2 0.763442 0.179214 0.41672  -0.195295266667
 C3 0.800929 0.202253 0.53889  0.431934733333
 C4 0.893597 0.293167 0.72367  0.1664414
 C5 0.962072 0.372091 0.838  -0.1356786
 C5 0.956926 0.334105 0.91948  -0.1356786
 C5 0.886045 0.220199 0.88796  -0.1356786
 C5 0.817857 0.141263 0.77431  -0.1356786
 C4 0.820833 0.178833 0.69158  0.1664414
 C1 0.387673 0.692974 0.39650  0.244184733333
 C1 0.300179 0.609502 0.21713  0.244184733333
 C2 0.41669 0.763474 0.17921  -0.195295266667
 C3 0.538853 0.800969 0.20226  0.431934733333
 C4 0.72363 0.893656 0.29317  0.1664414
 C5 0.838148 0.962123 0.37210  -0.1356786
 C5 0.919437 0.956989 0.33411  -0.1356786
 C5 0.887928 0.886088 0.22021  -0.1356786
 C5 0.774277 0.8179 0.14127  -0.1356786
 C4 0.69155 0.820857 0.17884  0.1664414
 C1 0.396496 0.3877 0.69299  0.244184733333
 C1 0.21713 0.300196 0.60952  0.244184733333
 C2 0.179201 0.416716 0.76349  -0.195295266667
 C3 0.202239 0.538882 0.8009  0.431934733333
 C4 0.293148 0.723664 0.89366  0.1664414
 C5 0.372074 0.838186 0.96213  -0.1356786
 C5 0.334088 0.919475 0.95699  -0.1356786
 C5 0.22019 0.887963 0.88609  -0.1356786
 C5 0.141254 0.774308 0.81790  -0.1356786
 C4 0.178826 0.691581 0.82087  0.1664414
 C1 0.30703 0.603514 0.61233  0.244184733333
 C1 0.39049 0.782884 0.69983  0.244184733333
 C2 0.236528 0.820802 0.58330  -0.195295266667
 C3 0.19904 0.797764 0.46114  0.431934733333
 C4 0.106359 0.706853 0.27635  0.1664414
 C5 0.0379 0.627925 0.16183  -0.1356786
 C5 0.043037 0.665913 0.08054  -0.1356786
 C5 0.113931 0.779814 0.11206  -0.1356786
 C5 0.182111 0.858753 0.22572  -0.1356786
 C4 0.179151 0.821178 0.30844  0.1664414
 C1 0.612297 0.307042 0.60352  0.244184733333
 C1 0.699792 0.390513 0.78289  0.244184733333
 C2 0.58328 0.236542 0.82081  -0.195295266667
 C3 0.461117 0.199048 0.79777  0.431934733333
 C4 0.27634 0.10637 0.70685  0.1664414
 C5 0.161822 0.037891 0.6279  -0.1356786
 C5 0.080533 0.043031 0.66591  -0.1356786
 C5 0.112042 0.113922 0.77982  -0.1356786
 C5 0.225693 0.182117 0.85875  -0.1356786
 C4 0.30842 0.179147 0.8211  0.1664414
 C1 0.603475 0.612316 0.30703  0.244184733333
 C1 0.782841 0.69982 0.39050  0.244184733333
 C2 0.820769 0.583299 0.23653  -0.195295266667
 C3 0.797731 0.461133 0.19904  0.431934733333
 C4 0.706822 0.276351 0.10636  0.1664414
 C5 0.627896 0.161829 0.03789  -0.1356786
 C5 0.665881 0.08054 0.04303  -0.1356786
 C5 0.77978 0.112053 0.11393  -0.1356786
 C5 0.858716 0.225707 0.18212  -0.1356786
 C4 0.821145 0.308434 0.17915  0.1664414
 N1 0.595612 0.30809 0.29905  -0.485545266667
 N2 0.765569 0.365018 0.44291  -0.392485266667
 N3 0.710368 0.249017 0.38629  0.178034733333
 N4 0.880822 0.305095 0.62514  -0.528461933333
 N4 0.762054 0.122737 0.57325  -0.528461933333
 N1 0.299042 0.595636 0.30809  -0.485545266667
 N2 0.442884 0.765608 0.36502  -0.392485266667
 N3 0.386259 0.7104 0.24902  0.178034733333
 N4 0.625096 0.880859 0.30510  -0.528461933333
 N4 0.573222 0.762096 0.12274  -0.528461933333
 N1 0.308091 0.299062 0.59565  -0.485545266667
 N2 0.365005 0.442913 0.76563  -0.392485266667
 N3 0.249008 0.386282 0.71042  0.178034733333
 N4 0.305081 0.625129 0.8808  -0.528461933333
 N4 0.122724 0.573248 0.76211  -0.528461933333
 N1 0.404358 0.691925 0.7009  -0.485545266667
 N2 0.2344 0.634998 0.55711  -0.392485266667
 N3 0.289602 0.750998 0.61374  0.178034733333
 N4 0.119154 0.694918 0.37489  -0.528461933333
 N4 0.23791 0.877281 0.4267  -0.528461933333
 N1 0.700929 0.40438 0.69193  -0.485545266667
 N2 0.557086 0.234409 0.6350  -0.392485266667
 N3 0.613712 0.289616 0.75101  0.178034733333
 N4 0.374874 0.119152 0.69492  -0.528461933333
 N4 0.426748 0.237924 0.87728  -0.528461933333
 N1 0.69188 0.700955 0.40437  -0.485545266667
 N2 0.634965 0.557103 0.23440  -0.392485266667
 N3 0.750962 0.613734 0.28960  0.178034733333
 N4 0.694889 0.374886 0.11915  -0.528461933333
 N4 0.877246 0.426767 0.2379  -0.528461933333
 Cl1 0.963042 0.624283 0.53694  -0.529125266667
 Cl1 0.536911 0.963085 0.62429  -0.529125266667
 Cl1 0.624265 0.536938 0.96311  -0.529125266667
 Cl1 0.036926 0.375732 0.4630  -0.529125266667
 Cl1 0.463061 0.036934 0.37573  -0.529125266667
 Cl1 0.375705 0.463075 0.03692  -0.529125266667
