#======================================================================

# CRYSTAL DATA

#----------------------------------------------------------------------

data_VESTA_phase_1


_pd_phase_name                         MOF
_cell_length_a                         17.43400
_cell_length_b                         12.84100
_cell_length_c                         17.87500
_cell_angle_alpha                      90.00200
_cell_angle_beta                       89.99800
_cell_angle_gamma                      112.94000
_symmetry_space_group_name_H-M         "P 1"
_symmetry_Int_Tables_number            1

loop_
_symmetry_equiv_pos_as_xyz
   "x, y, z"

loop_
   _atom_site_label
   _atom_site_fract_x
   _atom_site_fract_y
   _atom_site_fract_z
 _atom_site_charge
 La1 0.466953 0.954059 0.61103  2.17133871622
 La1 0.966952 0.954059 0.61103  2.17133871622
 La1 0.283047 0.045908 0.1110  2.17133871622
 La1 0.783046 0.045908 0.11102  2.17133871622
 La1 0.033046 0.045906 0.38897  2.17133871622
 La1 0.533045 0.045906 0.38897  2.17133871622
 La1 0.216955 0.954052 0.88898  2.17133871622
 La1 0.716955 0.954052 0.88898  2.17133871622
 H1 0.289255 0.651751 0.8043  0.10943579955
 H1 0.789254 0.651751 0.8043  0.10943579955
 H1 0.185789 0.463055 0.76612  0.10943579955
 H1 0.685788 0.463054 0.76612  0.10943579955
 H1 0.328229 0.479855 0.56535  0.10943579955
 H1 0.828228 0.479854 0.56535  0.10943579955
 H1 0.429569 0.666528 0.60358  0.10943579955
 H1 0.929568 0.666528 0.60358  0.10943579955
 H1 0.192915 0.383104 0.52805  0.10943579955
 H1 0.692915 0.383104 0.52805  0.10943579955
 H1 0.247268 0.301148 0.56162  0.10943579955
 H1 0.747267 0.301147 0.56162  0.10943579955
 H1 0.413035 0.815488 0.83322  0.10943579955
 H1 0.913034 0.815488 0.83322  0.10943579955
 H1 0.476972 0.740094 0.80941  0.10943579955
 H1 0.976971 0.740094 0.80941  0.10943579955
 H1 0.195462 0.869674 0.48155  0.10943579955
 H1 0.695461 0.869674 0.4815  0.10943579955
 H1 0.107347 0.796844 0.42534  0.10943579955
 H1 0.607347 0.796844 0.42534  0.10943579955
 H1 0.117968 0.531177 0.58667  0.10943579955
 H1 0.617968 0.531177 0.58667  0.10943579955
 H1 0.992018 0.659254 0.42540  0.10943579955
 H1 0.492017 0.659254 0.42540  0.10943579955
 H1 0.460752 0.348229 0.304  0.10943579955
 H1 0.960751 0.348228 0.304  0.10943579955
 H1 0.06422 0.53692 0.26611  0.10943579955
 H1 0.56422 0.53692 0.26611  0.10943579955
 H1 0.421777 0.520113 0.06535  0.10943579955
 H1 0.921777 0.520112 0.06535  0.10943579955
 H1 0.320437 0.333442 0.10358  0.10943579955
 H1 0.820436 0.333441 0.10358  0.10943579955
 H1 0.057081 0.616861 0.02804  0.10943579955
 H1 0.55708 0.61686 0.0280  0.10943579955
 H1 0.002735 0.698821 0.06162  0.10943579955
 H1 0.502734 0.698821 0.06162  0.10943579955
 H1 0.336984 0.184481 0.33321  0.10943579955
 H1 0.836983 0.18448 0.33321  0.10943579955
 H1 0.27305 0.259885 0.30942  0.10943579955
 H1 0.773049 0.259885 0.30942  0.10943579955
 H1 0.054556 0.130308 0.9815  0.10943579955
 H1 0.554556 0.13031 0.98156  0.10943579955
 H1 0.142677 0.203131 0.92535  0.10943579955
 H1 0.642677 0.203133 0.92535  0.10943579955
 H1 0.132044 0.46881 0.08666  0.10943579955
 H1 0.632044 0.468811 0.08666  0.10943579955
 H1 0.258002 0.340724 0.92541  0.10943579955
 H1 0.758003 0.340725 0.92541  0.10943579955
 H1 0.210746 0.348205 0.19570  0.10943579955
 H1 0.710746 0.348205 0.19570  0.10943579955
 H1 0.314217 0.536897 0.23388  0.10943579955
 H1 0.814217 0.536897 0.23388  0.10943579955
 H1 0.171776 0.520106 0.43465  0.10943579955
 H1 0.671776 0.520105 0.43465  0.10943579955
 H1 0.070431 0.333436 0.39642  0.10943579955
 H1 0.570431 0.333436 0.39642  0.10943579955
 H1 0.307086 0.616859 0.47196  0.10943579955
 H1 0.807086 0.616859 0.47196  0.10943579955
 H1 0.252736 0.698811 0.43838  0.10943579955
 H1 0.752736 0.69881 0.43838  0.10943579955
 H1 0.086972 0.184475 0.16678  0.10943579955
 H1 0.586971 0.184475 0.16678  0.10943579955
 H1 0.023034 0.25987 0.19059  0.10943579955
 H1 0.523034 0.25987 0.19059  0.10943579955
 H1 0.304552 0.13031 0.51845  0.10943579955
 H1 0.804552 0.13031 0.51845  0.10943579955
 H1 0.392672 0.203136 0.5746  0.10943579955
 H1 0.892672 0.203136 0.5746  0.10943579955
 H1 0.382046 0.468807 0.4133  0.10943579955
 H1 0.882045 0.468806 0.4133  0.10943579955
 H1 0.507997 0.340729 0.57460  0.10943579955
 H1 0.0 0.340729 0.57460  0.10943579955
 H1 0.039252 0.651727 0.69571  0.10943579955
 H1 0.53925 0.651727 0.69571  0.10943579955
 H1 0.435786 0.463033 0.73389  0.10943579955
 H1 0.935786 0.463033 0.73389  0.10943579955
 H1 0.078229 0.479847 0.9346  0.10943579955
 H1 0.578229 0.479847 0.9346  0.10943579955
 H1 0.179567 0.66652 0.89643  0.10943579955
 H1 0.679566 0.666519 0.89643  0.10943579955
 H1 0.44292 0.383097 0.97196  0.10943579955
 H1 0.942918 0.383097 0.97196  0.10943579955
 H1 0.497269 0.301136 0.93839  0.10943579955
 H1 0.997269 0.301136 0.93839  0.10943579955
 H1 0.163019 0.81548 0.66679  0.10943579955
 H1 0.663018 0.815479 0.66679  0.10943579955
 H1 0.226955 0.740078 0.69058  0.10943579955
 H1 0.726954 0.740077 0.69058  0.10943579955
 H1 0.445456 0.869679 0.01844  0.10943579955
 H1 0.945456 0.86968 0.0184  0.10943579955
 H1 0.357337 0.796856 0.07465  0.10943579955
 H1 0.857337 0.796857 0.07465  0.10943579955
 H1 0.367971 0.531173 0.91334  0.10943579955
 H1 0.867972 0.531174 0.91334  0.10943579955
 H1 0.242012 0.659259 0.07459  0.10943579955
 H1 0.742013 0.65926 0.07459  0.10943579955
 C1 0.364544 0.671912 0.70468  0.22860204955
 C1 0.864543 0.671911 0.70468  0.22860204955
 C2 0.297478 0.613899 0.75195  -0.168827533784
 C2 0.797477 0.613899 0.75195  -0.168827533784
 C2 0.239447 0.50792 0.73073  -0.168827533784
 C2 0.739446 0.50792 0.73073  -0.168827533784
 C1 0.248187 0.459581 0.66242  0.22860204955
 C1 0.748187 0.459581 0.66242  0.22860204955
 C2 0.31761 0.516488 0.61714  -0.168827533784
 C2 0.81761 0.516488 0.61714  -0.168827533784
 C2 0.375656 0.622277 0.63862  -0.168827533784
 C2 0.875656 0.622277 0.63862  -0.168827533784
 C3 0.190684 0.318799 0.5697  -0.0768429504505
 C3 0.690683 0.318799 0.5697  -0.0768429504505
 C4 0.116961 0.21041 0.55089  0.748191216216
 C4 0.61696 0.210409 0.55089  0.748191216216
 C3 0.457569 0.808121 0.79189  -0.0768429504505
 C3 0.957568 0.808121 0.79189  -0.0768429504505
 C4 0.032865 0.919637 0.78764  0.748191216216
 C4 0.532864 0.919637 0.78764  0.748191216216
 C5 0.081868 0.865297 0.52839  0.706083716216
 C5 0.581868 0.865296 0.52839  0.706083716216
 C3 0.130041 0.809601 0.48348  -0.0768429504505
 C3 0.630041 0.809601 0.48348  -0.0768429504505
 C1 0.063538 0.608341 0.50723  0.22860204955
 C1 0.563537 0.608341 0.50723  0.22860204955
 C2 0.066159 0.517064 0.54844  -0.168827533784
 C2 0.566158 0.517064 0.54844  -0.168827533784
 C2 0.996556 0.590881 0.45869  -0.168827533784
 C2 0.496556 0.590881 0.45869  -0.168827533784
 C1 0.385463 0.328062 0.20467  0.22860204955
 C1 0.885462 0.328061 0.20467  0.22860204955
 C2 0.452529 0.386076 0.25194  -0.168827533784
 C2 0.952528 0.386076 0.25194  -0.168827533784
 C2 0.010562 0.492053 0.2307  -0.168827533784
 C2 0.510561 0.492053 0.2307  -0.168827533784
 C1 0.001821 0.540388 0.16241  0.22860204955
 C1 0.501821 0.540388 0.16241  0.22860204955
 C2 0.432396 0.483481 0.11713  -0.168827533784
 C2 0.932395 0.48348 0.11713  -0.168827533784
 C2 0.37435 0.377693 0.13861  -0.168827533784
 C2 0.874349 0.377693 0.13861  -0.168827533784
 C3 0.059319 0.681166 0.06976  -0.0768429504505
 C3 0.559318 0.681166 0.06976  -0.0768429504505
 C4 0.13304 0.789553 0.05088  0.748191216216
 C4 0.63304 0.789553 0.05088  0.748191216216
 C3 0.292446 0.191855 0.29189  -0.0768429504505
 C3 0.792445 0.191854 0.29189  -0.0768429504505
 C4 0.217145 0.080344 0.2876  0.748191216216
 C4 0.717144 0.080344 0.2876  0.748191216216
 C5 0.168144 0.134678 0.02839  0.706083716216
 C5 0.668143 0.134678 0.02839  0.706083716216
 C3 0.119977 0.190378 0.98349  -0.0768429504505
 C3 0.619977 0.190379 0.98349  -0.0768429504505
 C1 0.186481 0.39164 0.00722  0.22860204955
 C1 0.686481 0.391641 0.00722  0.22860204955
 C2 0.183856 0.482921 0.0484  -0.168827533784
 C2 0.683856 0.482922 0.0484  -0.168827533784
 C2 0.253461 0.4091 0.95870  -0.168827533784
 C2 0.753462 0.409101 0.95870  -0.168827533784
 C1 0.135457 0.328048 0.2953  0.22860204955
 C1 0.635457 0.328048 0.2953  0.22860204955
 C2 0.202524 0.386057 0.24805  -0.168827533784
 C2 0.702524 0.386057 0.24805  -0.168827533784
 C2 0.260558 0.492034 0.26928  -0.168827533784
 C2 0.760558 0.492033 0.26928  -0.168827533784
 C1 0.251819 0.540373 0.33759  0.22860204955
 C1 0.751819 0.540372 0.33759  0.22860204955
 C2 0.182394 0.483471 0.38287  -0.168827533784
 C2 0.682393 0.48347 0.38287  -0.168827533784
 C2 0.124346 0.377684 0.3613  -0.168827533784
 C2 0.624345 0.377683 0.3613  -0.168827533784
 C3 0.309321 0.681158 0.43024  -0.0768429504505
 C3 0.80932 0.681158 0.43024  -0.0768429504505
 C4 0.383041 0.789551 0.44911  0.748191216216
 C4 0.88304 0.78955 0.44911  0.748191216216
 C3 0.042435 0.191841 0.20811  -0.0768429504505
 C3 0.542434 0.191841 0.20811  -0.0768429504505
 C4 0.467137 0.080327 0.21235  0.748191216216
 C4 0.967136 0.080327 0.21235  0.748191216216
 C5 0.418139 0.134679 0.47161  0.706083716216
 C5 0.918138 0.134679 0.47161  0.706083716216
 C3 0.369974 0.190379 0.5165  -0.0768429504505
 C3 0.869973 0.190379 0.5165  -0.0768429504505
 C1 0.436478 0.391642 0.49278  0.22860204955
 C1 0.936477 0.391641 0.49278  0.22860204955
 C2 0.433856 0.482919 0.45156  -0.168827533784
 C2 0.933855 0.482919 0.45156  -0.168827533784
 C2 0.503458 0.409102 0.5413  -0.168827533784
 C2 0.0 0.409102 0.5413  -0.168827533784
 C1 0.114542 0.671896 0.79533  0.22860204955
 C1 0.614541 0.671896 0.79533  0.22860204955
 C2 0.047476 0.613879 0.74806  -0.168827533784
 C2 0.547475 0.613879 0.74806  -0.168827533784
 C2 0.489445 0.507901 0.76929  -0.168827533784
 C2 0.989444 0.507901 0.76929  -0.168827533784
 C1 0.498186 0.459565 0.837  0.22860204955
 C1 0.998186 0.459566 0.83759  0.22860204955
 C2 0.06761 0.516477 0.88287  -0.168827533784
 C2 0.567609 0.516477 0.88287  -0.168827533784
 C2 0.125654 0.622266 0.86139  -0.168827533784
 C2 0.625654 0.622266 0.86139  -0.168827533784
 C3 0.440686 0.318789 0.93025  -0.0768429504505
 C3 0.940685 0.318789 0.9302  -0.0768429504505
 C4 0.366962 0.210403 0.94912  0.748191216216
 C4 0.866961 0.210403 0.94912  0.748191216216
 C3 0.207557 0.808106 0.7081  -0.0768429504505
 C3 0.707556 0.808106 0.7081  -0.0768429504505
 C4 0.282856 0.919619 0.71236  0.748191216216
 C4 0.782855 0.919618 0.71236  0.748191216216
 C5 0.331864 0.865294 0.97161  0.706083716216
 C5 0.831864 0.865294 0.97161  0.706083716216
 C3 0.380036 0.809605 0.01651  -0.0768429504505
 C3 0.880036 0.809606 0.01651  -0.0768429504505
 C1 0.313535 0.608343 0.99279  0.22860204955
 C1 0.813536 0.608343 0.99279  0.22860204955
 C2 0.31616 0.517062 0.95157  -0.168827533784
 C2 0.81616 0.517063 0.95157  -0.168827533784
 C2 0.246554 0.590883 0.04130  -0.168827533784
 C2 0.746554 0.590884 0.04130  -0.168827533784
 O1 0.420055 0.783583 0.7182  -0.353826283784
 O1 0.920054 0.783583 0.71826  -0.353826283784
 O2 0.072634 0.950696 0.49840  -0.801806283784
 O2 0.572633 0.950696 0.49840  -0.801806283784
 O3 0.054555 0.830272 0.59288  -0.692276283784
 O3 0.554554 0.830272 0.59288  -0.692276283784
 O4 0.131441 0.709597 0.51654  -0.256166283784
 O4 0.63144 0.709597 0.51654  -0.256166283784
 O3 0.040356 0.983027 0.73170  -0.692276283784
 O3 0.540355 0.983027 0.73170  -0.692276283784
 O4 0.186237 0.35747 0.64379  -0.256166283784
 O4 0.686237 0.357469 0.64379  -0.256166283784
 O3 0.07028 0.150865 0.60225  -0.692276283784
 O3 0.57028 0.150864 0.60225  -0.692276283784
 O3 0.11035 0.188014 0.48121  -0.692276283784
 O3 0.610349 0.188014 0.48121  -0.692276283784
 O3 0.083809 0.943108 0.84227  -0.692276283784
 O3 0.583809 0.943108 0.84227  -0.692276283784
 O1 0.329949 0.216392 0.21826  -0.353826283784
 O1 0.829948 0.216392 0.21826  -0.353826283784
 O2 0.177363 0.049262 0.9984  -0.801806283784
 O2 0.677363 0.049262 0.99842  -0.801806283784
 O3 0.195463 0.169718 0.09287  -0.692276283784
 O3 0.695463 0.169717 0.09287  -0.692276283784
 O4 0.11858 0.290383 0.01654  -0.256166283784
 O4 0.61858 0.290384 0.0165  -0.256166283784
 O3 0.209641 0.016956 0.23169  -0.692276283784
 O3 0.70964 0.016956 0.23169  -0.692276283784
 O4 0.063772 0.642496 0.1437  -0.256166283784
 O4 0.563772 0.642496 0.1437  -0.256166283784
 O3 0.179722 0.849105 0.10223  -0.692276283784
 O3 0.679721 0.849105 0.10223  -0.692276283784
 O3 0.139647 0.81194 0.98121  -0.692276283784
 O3 0.639647 0.811939 0.98121  -0.692276283784
 O3 0.166212 0.056876 0.3422  -0.692276283784
 O3 0.666211 0.056875 0.34228  -0.692276283784
 O1 0.079943 0.216378 0.28174  -0.353826283784
 O1 0.579942 0.216377 0.28174  -0.353826283784
 O2 0.427364 0.049266 0.50159  -0.801806283784
 O2 0.927363 0.049266 0.50159  -0.801806283784
 O3 0.445457 0.169713 0.40712  -0.692276283784
 O3 0.945456 0.169713 0.40712  -0.692276283784
 O4 0.368576 0.290385 0.48347  -0.256166283784
 O4 0.868575 0.290385 0.48347  -0.256166283784
 O3 0.459639 0.016935 0.26830  -0.692276283784
 O3 0.959638 0.016935 0.26830  -0.692276283784
 O4 0.313773 0.642479 0.35622  -0.256166283784
 O4 0.813773 0.642478 0.35622  -0.256166283784
 O3 0.429717 0.8491 0.39775  -0.692276283784
 O3 0.929716 0.8491 0.39775  -0.692276283784
 O3 0.389653 0.811944 0.51879  -0.692276283784
 O3 0.889652 0.811944 0.51879  -0.692276283784
 O3 0.416201 0.056857 0.15772  -0.692276283784
 O3 0.9162 0.056857 0.15772  -0.692276283784
 O1 0.170055 0.783565 0.78174  -0.353826283784
 O1 0.670054 0.783565 0.78174  -0.353826283784
 O2 0.322637 0.950706 0.00157  -0.801806283784
 O2 0.822637 0.950707 0.00157  -0.801806283784
 O3 0.304548 0.830249 0.9071  -0.692276283784
 O3 0.804547 0.830248 0.90712  -0.692276283784
 O4 0.381438 0.709599 0.98347  -0.256166283784
 O4 0.881438 0.7096 0.98347  -0.256166283784
 O3 0.290361 0.983005 0.76831  -0.692276283784
 O3 0.79036 0.983005 0.76831  -0.692276283784
 O4 0.436239 0.357453 0.8562  -0.256166283784
 O4 0.936238 0.357453 0.8562  -0.256166283784
 O3 0.32028 0.150858 0.89777  -0.692276283784
 O3 0.820279 0.150858 0.89777  -0.692276283784
 O3 0.360352 0.188011 0.01879  -0.692276283784
 O3 0.860352 0.18801 0.01879  -0.692276283784
 O3 0.333788 0.94309 0.65772  -0.692276283784
 O3 0.833787 0.94309 0.6577  -0.692276283784
