#======================================================================

# CRYSTAL DATA

#----------------------------------------------------------------------

data_VESTA_phase_1


_pd_phase_name                         MOF
_cell_length_a                         18.79500
_cell_length_b                         18.72600
_cell_length_c                         18.72400
_cell_angle_alpha                      60.22400
_cell_angle_beta                       60.40100
_cell_angle_gamma                      60.36600
_symmetry_space_group_name_H-M         "P 1"
_symmetry_Int_Tables_number            1

loop_
_symmetry_equiv_pos_as_xyz
   "x, y, z"

loop_
   _atom_site_label
   _atom_site_fract_x
   _atom_site_fract_y
   _atom_site_fract_z
 _atom_site_charge
 Zn1 0.542428 0.37108 0.54281  1.15253558511
 Zn1 0.372097 0.54247 0.54249  1.15253558511
 Zn1 0.54276 0.54347 0.54336  1.15253558511
 Zn1 0.542494 0.542813 0.37111  1.15253558511
 Zn1 0.127306 0.957673 0.9576  1.15253558511
 Zn1 0.957618 0.128468 0.95721  1.15253558511
 Zn1 0.957609 0.957242 0.12838  1.15253558511
 Zn1 0.957282 0.956563 0.95666  1.15253558511
 H1 0.318653 0.089251 0.79602  0.163400585106
 H1 0.090346 0.320457 0.79493  0.163400585106
 H1 0.7959 0.796068 0.31944  0.163400585106
 H1 0.794823 0.794209 0.08943  0.163400585106
 H1 0.318157 0.79677 0.79660  0.163400585106
 H1 0.090441 0.793759 0.79383  0.163400585106
 H1 0.795649 0.320137 0.08937  0.163400585106
 H1 0.795463 0.0893 0.31990  0.163400585106
 H1 0.318617 0.796183 0.08928  0.163400585106
 H1 0.090343 0.794788 0.32026  0.163400585106
 H1 0.794988 0.089385 0.79422  0.163400585106
 H1 0.795856 0.319416 0.7961  0.163400585106
 C1 0.324547 0.220168 0.72741  0.0179080851064
 C2 0.283862 0.158998 0.77854  -0.114331914894
 C1 0.221094 0.324918 0.72693  0.0179080851064
 C2 0.159583 0.284842 0.77796  -0.114331914894
 C1 0.727387 0.727776 0.32489  0.0179080851064
 C2 0.778468 0.778557 0.28426  -0.114331914894
 C1 0.726912 0.726946 0.22072  0.0179080851064
 C2 0.777894 0.777557 0.15907  -0.114331914894
 C1 0.324595 0.727936 0.72786  0.0179080851064
 C2 0.283595 0.778936 0.77882  -0.114331914894
 C1 0.221374 0.726593 0.72663  0.0179080851064
 C2 0.159631 0.777317 0.77733  -0.114331914894
 C1 0.727034 0.324946 0.22045  0.0179080851064
 C2 0.778336 0.284664 0.15905  -0.114331914894
 C1 0.726923 0.220341 0.32493  0.0179080851064
 C2 0.778231 0.15902 0.28454  -0.114331914894
 C1 0.324695 0.727419 0.22013  0.0179080851064
 C2 0.283896 0.778599 0.15901  -0.114331914894
 C1 0.221027 0.726772 0.32502  0.0179080851064
 C2 0.159597 0.777842 0.28478  -0.114331914894
 C1 0.726893 0.220585 0.72686  0.0179080851064
 C2 0.777925 0.159063 0.77751  -0.114331914894
 C1 0.727275 0.325128 0.72771  0.0179080851064
 C2 0.778388 0.284331 0.77853  -0.114331914894
 C3 0.308357 0.307774 0.69162  -0.0737694148936
 C3 0.192289 0.192752 0.80770  -0.0737694148936
 C4 0.135967 0.136731 0.86404  0.710610585106
 C4 0.364467 0.363683 0.63541  0.710610585106
 C3 0.691618 0.692072 0.308  -0.0737694148936
 C3 0.807609 0.807267 0.19219  -0.0737694148936
 C4 0.863999 0.863262 0.13583  0.710610585106
 C4 0.635422 0.636205 0.36456  0.710610585106
 C3 0.308696 0.691887 0.69188  -0.0737694148936
 C3 0.192023 0.807412 0.807  -0.0737694148936
 C4 0.135523 0.863577 0.8635  0.710610585106
 C4 0.364944 0.635878 0.63588  0.710610585106
 C3 0.691303 0.307988 0.30808  -0.0737694148936
 C3 0.807862 0.192575 0.19248  -0.0737694148936
 C4 0.864449 0.136452 0.13628  0.710610585106
 C4 0.634973 0.363971 0.36410  0.710610585106
 C3 0.308334 0.691614 0.30777  -0.0737694148936
 C3 0.192333 0.80766 0.19273  -0.0737694148936
 C4 0.136003 0.864052 0.13666  0.710610585106
 C4 0.364438 0.635444 0.36372  0.710610585106
 C3 0.691636 0.308354 0.69207  -0.0737694148936
 C3 0.807583 0.192252 0.80720  -0.0737694148936
 C4 0.863972 0.135885 0.8632  0.710610585106
 C4 0.635422 0.364539 0.63618  0.710610585106
 O1 0.17481 0.054548 0.88565  -0.62724983156
 O1 0.445708 0.3237 0.61458  -0.62724983156
 O1 0.054267 0.176078 0.88538  -0.62724983156
 O1 0.324913 0.445396 0.61440  -0.62724983156
 O1 0.885614 0.884964 0.17514  -0.62724983156
 O1 0.614571 0.615797 0.4462  -0.62724983156
 O1 0.885364 0.88424 0.05366  -0.62724983156
 O1 0.614452 0.615033 0.32455  -0.62724983156
 O1 0.174349 0.885481 0.88546  -0.62724983156
 O1 0.446204 0.615492 0.61542  -0.62724983156
 O1 0.053812 0.884488 0.88453  -0.62724983156
 O1 0.325368 0.614578 0.61460  -0.62724983156
 O1 0.886051 0.175832 0.05411  -0.62724983156
 O1 0.614181 0.445706 0.324  -0.62724983156
 O1 0.88609 0.054257 0.17560  -0.62724983156
 O1 0.613944 0.323938 0.44581  -0.62724983156
 O1 0.174821 0.885786 0.05451  -0.62724983156
 O1 0.445681 0.6148 0.32380  -0.62724983156
 O1 0.05431 0.885403 0.17597  -0.62724983156
 O1 0.324888 0.61436 0.44540  -0.62724983156
 O1 0.885223 0.0537 0.8844  -0.62724983156
 O1 0.61437 0.324529 0.61508  -0.62724983156
 O1 0.885706 0.175226 0.88480  -0.62724983156
 O1 0.614665 0.446269 0.61564  -0.62724983156
 O2 0.999668 1.8e-05 0.99996  -1.30605191489
 O2 0.500165 0.499951 0.4999  -1.30605191489
