#======================================================================

# CRYSTAL DATA

#----------------------------------------------------------------------

data_VESTA_phase_1


_pd_phase_name                         MOF
_cell_length_a                         17.23600
_cell_length_b                         16.94600
_cell_length_c                         17.85300
_cell_angle_alpha                      89.93500
_cell_angle_beta                       90.00100
_cell_angle_gamma                      89.18200
_symmetry_space_group_name_H-M         "P 1"
_symmetry_Int_Tables_number            1

loop_
_symmetry_equiv_pos_as_xyz
   "x, y, z"

loop_
   _atom_site_label
   _atom_site_fract_x
   _atom_site_fract_y
   _atom_site_fract_z
 _atom_site_charge
 Zn1 0.262869 0.88289 0.627  0.902433777778
 Zn1 0.766166 0.619999 0.37241  0.902433777778
 Zn1 0.762991 0.383143 0.87221  0.902433777778
 Zn1 0.266173 0.119765 0.12743  0.902433777778
 Zn1 0.237015 0.616883 0.12777  0.902433777778
 Zn1 0.733832 0.880247 0.87256  0.902433777778
 Zn1 0.736961 0.117115 0.37208  0.902433777778
 Zn1 0.233759 0.380052 0.62762  0.902433777778
 H1 0.263323 0.076198 0.59869  0.291463777778
 H1 0.143672 0.032262 0.19230  0.291463777778
 H2 0.210833 0.836952 0.45893  0.129703152778
 H2 0.313605 0.835278 0.46289  0.129703152778
 H2 0.26558 0.86849 0.3798  0.129703152778
 H2 0.264503 0.20088 0.52253  0.129703152778
 H2 0.207323 0.187766 0.44045  0.129703152778
 H2 0.309868 0.187835 0.43380  0.129703152778
 H2 0.094214 0.912072 0.30592  0.129703152778
 H2 0.052876 0.0 0.33364  0.129703152778
 H2 0.11241 0.950159 0.39682  0.129703152778
 H2 0.401026 0.099049 0.24985  0.129703152778
 H2 0.399109 0.077205 0.34782  0.129703152778
 H2 0.361139 0.168303 0.31340  0.129703152778
 H2 0.088378 0.725823 0.53783  0.129703152778
 H2 0.984423 0.673354 0.45370  0.129703152778
 H2 0.883048 0.90576 0.43790  0.129703152778
 H2 0.98013 0.954856 0.52955  0.129703152778
 H1 0.768485 0.427041 0.39982  0.291463777778
 H1 0.637695 0.468922 0.80466  0.291463777778
 H2 0.708542 0.66391 0.54501  0.129703152778
 H2 0.811069 0.665474 0.53723  0.129703152778
 H2 0.767117 0.630924 0.62141  0.129703152778
 H2 0.762395 0.30084 0.47435  0.129703152778
 H2 0.7087 0.314563 0.55877  0.129703152778
 H2 0.811461 0.311161 0.56144  0.129703152778
 H2 0.589014 0.590794 0.68826  0.129703152778
 H2 0.548241 0.498601 0.66366  0.129703152778
 H2 0.607648 0.548984 0.59879  0.129703152778
 H2 0.896261 0.397654 0.75207  0.129703152778
 H2 0.897582 0.423675 0.65494  0.129703152778
 H2 0.859746 0.331812 0.68453  0.129703152778
 H2 0.588845 0.775795 0.46695  0.129703152778
 H2 0.483199 0.827172 0.55132  0.129703152778
 H2 0.385446 0.595668 0.56073  0.129703152778
 H2 0.485057 0.547619 0.46942  0.129703152778
 H1 0.76279 0.576722 0.90100  0.291463777778
 H1 0.643608 0.533295 0.30738  0.291463777778
 H2 0.710565 0.337463 0.04151  0.129703152778
 H2 0.813331 0.335837 0.03737  0.129703152778
 H2 0.765446 0.369098 0.12036  0.129703152778
 H2 0.765061 0.701425 0.97692  0.129703152778
 H2 0.707193 0.68843 0.05861  0.129703152778
 H2 0.809685 0.688267 0.06604  0.129703152778
 H2 0.594751 0.412305 0.19410  0.129703152778
 H2 0.552967 0.504425 0.16655  0.129703152778
 H2 0.612541 0.450751 0.10318  0.129703152778
 H2 0.901085 0.599882 0.24974  0.129703152778
 H2 0.899073 0.578195 0.15179  0.129703152778
 H2 0.861085 0.669213 0.18618  0.129703152778
 H2 0.588264 0.225651 0.96207  0.129703152778
 H2 0.484266 0.173137 0.04628  0.129703152778
 H2 0.383408 0.405718 0.06236  0.129703152778
 H2 0.480476 0.454854 0.97061  0.129703152778
 H1 0.269406 0.927045 0.10028  0.291463777778
 H1 0.137798 0.968881 0.69523  0.291463777778
 H2 0.208331 0.163535 0.95428  0.129703152778
 H2 0.310837 0.165423 0.9622  0.129703152778
 H2 0.267157 0.130697 0.87810  0.129703152778
 H2 0.262545 0.800704 0.02621  0.129703152778
 H2 0.208942 0.814329 0.94168  0.129703152778
 H2 0.311705 0.810863 0.93912  0.129703152778
 H2 0.089107 0.09066 0.81095  0.129703152778
 H2 0.048326 0.99863 0.83628  0.129703152778
 H2 0.10778 0.049362 0.90073  0.129703152778
 H2 0.39612 0.896776 0.748  0.129703152778
 H2 0.397497 0.923138 0.84519  0.129703152778
 H2 0.359424 0.831293 0.81608  0.129703152778
 H2 0.089737 0.274849 0.03339  0.129703152778
 H2 0.984413 0.327606 0.94926  0.129703152778
 H2 0.884984 0.096909 0.93894  0.129703152778
 H2 0.984279 0.047499 0.  0.129703152778
 H1 0.237189 0.423309 0.09903  0.291463777778
 H1 0.356374 0.466612 0.69269  0.291463777778
 H2 0.289404 0.662547 0.958  0.129703152778
 H2 0.186637 0.66418 0.96261  0.129703152778
 H2 0.23454 0.630896 0.87964  0.129703152778
 H2 0.234903 0.298585 0.02310  0.129703152778
 H2 0.292778 0.311597 0.94142  0.129703152778
 H2 0.190289 0.31175 0.9339  0.129703152778
 H2 0.405187 0.587692 0.80592  0.129703152778
 H2 0.446983 0.49557 0.83345  0.129703152778
 H2 0.387433 0.549231 0.89684  0.129703152778
 H2 0.098847 0.400162 0.75029  0.129703152778
 H2 0.10086 0.421816 0.84824  0.129703152778
 H2 0.138841 0.330805 0.81382  0.129703152778
 H2 0.411754 0.774364 0.03791  0.129703152778
 H2 0.515754 0.826873 0.95371  0.129703152778
 H2 0.616579 0.59428 0.93760  0.129703152778
 H2 0.519511 0.545148 0.  0.129703152778
 H1 0.730582 0.072948 0.89967  0.291463777778
 H1 0.862179 0.031198 0.30474  0.291463777778
 H2 0.791685 0.836485 0.04571  0.129703152778
 H2 0.68918 0.83459 0.0377  0.129703152778
 H2 0.732847 0.869331 0.12188  0.129703152778
 H2 0.737456 0.199307 0.97374  0.129703152778
 H2 0.791085 0.185684 0.05825  0.129703152778
 H2 0.688323 0.189149 0.06085  0.129703152778
 H2 0.910921 0.909411 0.1890  0.129703152778
 H2 0.951693 0.0 0.16371  0.129703152778
 H2 0.892251 0.95071 0.09925  0.129703152778
 H2 0.603856 0.10323 0.25173  0.129703152778
 H2 0.60249 0.076797 0.15474  0.129703152778
 H2 0.640522 0.168678 0.18380  0.129703152778
 H2 0.910273 0.725167 0.96659  0.129703152778
 H2 0.0156 0.672421 0.05073  0.129703152778
 H2 0.115033 0.903118 0.06102  0.129703152778
 H2 0.015737 0.952515 0.96995  0.129703152778
 H1 0.736692 0.923702 0.40133  0.291463777778
 H1 0.856316 0.967771 0.80769  0.291463777778
 H2 0.78912 0.163054 0.54092  0.129703152778
 H2 0.686337 0.164642 0.53713  0.129703152778
 H2 0.734533 0.1315 0.62006  0.129703152778
 H2 0.73534 0.799057 0.47753  0.129703152778
 H2 0.792579 0.812161 0.55958  0.129703152778
 H2 0.690039 0.81217 0.5662  0.129703152778
 H2 0.905743 0.087961 0.69405  0.129703152778
 H2 0.9471 0.995762 0.66636  0.129703152778
 H2 0.887564 0.049844 0.60316  0.129703152778
 H2 0.598932 0.901057 0.75016  0.129703152778
 H2 0.600891 0.922753 0.6521  0.129703152778
 H2 0.638829 0.831696 0.68672  0.129703152778
 H2 0.911491 0.274262 0.46213  0.129703152778
 H2 0.015459 0.326743 0.54624  0.129703152778
 H2 0.116828 0.094337 0.56207  0.129703152778
 H2 0.019733 0.045229 0.47044  0.129703152778
 H1 0.231738 0.57307 0.60016  0.291463777778
 H1 0.36229 0.531072 0.19533  0.291463777778
 H2 0.291487 0.336104 0.45507  0.129703152778
 H2 0.188957 0.334582 0.46280  0.129703152778
 H2 0.23296 0.369094 0.37864  0.129703152778
 H2 0.23731 0.699232 0.52558  0.129703152778
 H2 0.291375 0.68553 0.44138  0.129703152778
 H2 0.188624 0.688818 0.43832  0.129703152778
 H2 0.410923 0.409162 0.31170  0.129703152778
 H2 0.451739 0.501333 0.33631  0.129703152778
 H2 0.392323 0.450964 0.40118  0.129703152778
 H2 0.10372 0.602322 0.2479  0.129703152778
 H2 0.102422 0.576381 0.3450  0.129703152778
 H2 0.140247 0.668223 0.31540  0.129703152778
 H2 0.410716 0.224 0.53327  0.129703152778
 H2 0.516158 0.172393 0.44876  0.129703152778
 H2 0.614479 0.403637 0.43938  0.129703152778
 H2 0.515023 0.451927 0.53077  0.129703152778
 C1 0.263079 0.868327 0.44127  -0.387028722222
 C2 0.262627 0.950861 0.4698  0.230898777778
 C3 0.257691 0.021535 0.42786  -0.152408722222
 C2 0.262619 0.082716 0.48012  0.230898777778
 C1 0.261107 0.169512 0.46907  -0.387028722222
 C1 0.10503 0.966305 0.33777  -0.387028722222
 C2 0.175398 0.006893 0.309  0.230898777778
 C3 0.242955 0.0304 0.34753  -0.152408722222
 C2 0.289307 0.067819 0.2930  0.230898777778
 C1 0.366811 0.10477 0.30146  -0.387028722222
 C4 0.101859 0.876601 0.5892  0.668303777778
 C3 0.040782 0.843858 0.5385  -0.152408722222
 C5 0.042529 0.764426 0.51628  -0.0686187222222
 C5 0.985316 0.735538 0.46899  -0.0686187222222
 C5 0.926943 0.865929 0.46094  -0.0686187222222
 C5 0.981883 0.89383 0.51102  -0.0686187222222
 C4 0.861424 0.754847 0.39374  0.668303777778
 C3 0.927014 0.786073 0.44056  -0.152408722222
 C1 0.762304 0.632169 0.56015  -0.387028722222
 C2 0.762817 0.550162 0.53030  0.230898777778
 C3 0.756063 0.479066 0.57116  -0.152408722222
 C2 0.762599 0.418435 0.51833  0.230898777778
 C1 0.761292 0.331521 0.52830  -0.387028722222
 C1 0.600212 0.535133 0.65830  -0.387028722222
 C2 0.670781 0.493905 0.68762  0.230898777778
 C3 0.739474 0.469857 0.65106  -0.152408722222
 C2 0.785712 0.432305 0.70638  0.230898777778
 C1 0.864065 0.394682 0.69914  -0.387028722222
 C4 0.605624 0.626047 0.4122  0.668303777778
 C3 0.543586 0.658211 0.46333  -0.152408722222
 C5 0.543564 0.737077 0.48727  -0.0686187222222
 C5 0.485346 0.76537 0.53466  -0.0686187222222
 C5 0.429096 0.635509 0.53918  -0.0686187222222
 C5 0.485272 0.608217 0.48922  -0.0686187222222
 C4 0.360972 0.745836 0.60840  0.668303777778
 C3 0.42756 0.714865 0.56138  -0.152408722222
 C1 0.762829 0.368882 0.05897  -0.387028722222
 C2 0.762343 0.451401 0.03013  0.230898777778
 C3 0.757722 0.52212 0.07200  -0.152408722222
 C2 0.762583 0.583264 0.01957  0.230898777778
 C1 0.761176 0.670059 0.03043  -0.387028722222
 C1 0.605253 0.466685 0.16226  -0.387028722222
 C2 0.675541 0.50748 0.19009  0.230898777778
 C3 0.743072 0.53104 0.15231  -0.152408722222
 C2 0.789336 0.568636 0.206  0.230898777778
 C1 0.866804 0.605664 0.19816  -0.387028722222
 C4 0.601954 0.376587 0.91074  0.668303777778
 C3 0.540908 0.343781 0.96152  -0.152408722222
 C5 0.542518 0.264282 0.98370  -0.0686187222222
 C5 0.485293 0.23537 0.03105  -0.0686187222222
 C5 0.427203 0.365862 0.03926  -0.0686187222222
 C5 0.482137 0.393784 0.98913  -0.0686187222222
 C4 0.361499 0.254697 0.10637  0.668303777778
 C3 0.427128 0.285943 0.05957  -0.152408722222
 C1 0.262224 0.131947 0.93935  -0.387028722222
 C2 0.262928 0.049957 0.96942  0.230898777778
 C3 0.256094 0.978833 0.9287  -0.152408722222
 C2 0.262833 0.918249 0.98178  0.230898777778
 C1 0.261514 0.831316 0.97212  -0.387028722222
 C1 0.100309 0.03518 0.84132  -0.387028722222
 C2 0.170843 0.993798 0.8122  0.230898777778
 C3 0.23944 0.969576 0.84891  -0.152408722222
 C2 0.285647 0.931907 0.79370  0.230898777778
 C1 0.363905 0.894098 0.80113  -0.387028722222
 C4 0.105593 0.124921 0.08739  0.668303777778
 C3 0.043637 0.157606 0.03651  -0.152408722222
 C5 0.044175 0.236633 0.01291  -0.0686187222222
 C5 0.986165 0.265682 0.96565  -0.0686187222222
 C5 0.928941 0.136276 0.96061  -0.0686187222222
 C5 0.984963 0.108215 0.  -0.0686187222222
 C4 0.861627 0.247849 0.89217  0.668303777778
 C3 0.928001 0.215791 0.93879  -0.152408722222
 C1 0.237142 0.631128 0.94103  -0.387028722222
 C2 0.237619 0.548614 0.96988  0.230898777778
 C3 0.242225 0.477892 0.92803  -0.152408722222
 C2 0.237375 0.416752 0.9804  0.230898777778
 C1 0.23879 0.329959 0.96959  -0.387028722222
 C1 0.394698 0.533308 0.83776  -0.387028722222
 C2 0.324401 0.492521 0.80994  0.230898777778
 C3 0.256867 0.468969 0.84772  -0.152408722222
 C2 0.210597 0.431382 0.7933  0.230898777778
 C1 0.133127 0.394359 0.80186  -0.387028722222
 C4 0.39805 0.623429 0.08924  0.668303777778
 C3 0.459095 0.656229 0.03845  -0.152408722222
 C5 0.457494 0.735731 0.01628  -0.0686187222222
 C5 0.51472 0.764639 0.9689  -0.0686187222222
 C5 0.572792 0.63414 0.96070  -0.0686187222222
 C5 0.517859 0.606221 0.  -0.0686187222222
 C4 0.63851 0.745308 0.89361  0.668303777778
 C3 0.572877 0.714062 0.94040  -0.152408722222
 C1 0.737788 0.868072 0.06063  -0.387028722222
 C2 0.737082 0.950057 0.03055  0.230898777778
 C3 0.743925 0.021186 0.07118  -0.152408722222
 C2 0.737181 0.081763 0.01818  0.230898777778
 C1 0.738503 0.168696 0.02782  -0.387028722222
 C1 0.899713 0.964892 0.15865  -0.387028722222
 C2 0.829168 0.006261 0.18774  0.230898777778
 C3 0.76057 0.030455 0.15105  -0.152408722222
 C2 0.714339 0.068112 0.20624  0.230898777778
 C1 0.636065 0.105881 0.19879  -0.387028722222
 C4 0.894417 0.875091 0.91258  0.668303777778
 C3 0.956376 0.84241 0.96346  -0.152408722222
 C5 0.955837 0.763386 0.98707  -0.0686187222222
 C5 0.013848 0.734342 0.03433  -0.0686187222222
 C5 0.071075 0.863748 0.03935  -0.0686187222222
 C5 0.015053 0.891802 0.9895  -0.0686187222222
 C4 0.138386 0.752184 0.10781  0.668303777778
 C3 0.072014 0.784237 0.06119  -0.152408722222
 C1 0.736933 0.131642 0.55867  -0.387028722222
 C2 0.737391 0.049095 0.53009  0.230898777778
 C3 0.742286 0.978437 0.57214  -0.152408722222
 C2 0.737333 0.91724 0.51990  0.230898777778
 C1 0.738793 0.830445 0.53097  -0.387028722222
 C1 0.89494 0.033716 0.6622  -0.387028722222
 C2 0.824576 0.993126 0.69020  0.230898777778
 C3 0.75702 0.969603 0.65247  -0.152408722222
 C2 0.710672 0.932198 0.7069  0.230898777778
 C1 0.633165 0.895249 0.69857  -0.387028722222
 C4 0.898021 0.123454 0.41074  0.668303777778
 C3 0.959079 0.156224 0.4614  -0.152408722222
 C5 0.957339 0.23566 0.48369  -0.0686187222222
 C5 0.01456 0.264555 0.53096  -0.0686187222222
 C5 0.072929 0.134164 0.53903  -0.0686187222222
 C5 0.017982 0.106257 0.48896  -0.0686187222222
 C4 0.138465 0.245236 0.60621  0.668303777778
 C3 0.072865 0.214024 0.55940  -0.152408722222
 C1 0.237746 0.367864 0.43990  -0.387028722222
 C2 0.237243 0.44988 0.46973  0.230898777778
 C3 0.243941 0.520965 0.42883  -0.152408722222
 C2 0.237408 0.581611 0.48165  0.230898777778
 C1 0.238678 0.668524 0.47165  -0.387028722222
 C1 0.399754 0.464822 0.34167  -0.387028722222
 C2 0.329196 0.506083 0.31236  0.230898777778
 C3 0.26051 0.53015 0.3489  -0.152408722222
 C2 0.21428 0.567711 0.29360  0.230898777778
 C1 0.135929 0.605339 0.30083  -0.387028722222
 C4 0.394304 0.373738 0.58792  0.668303777778
 C3 0.456255 0.341464 0.53686  -0.152408722222
 C5 0.456069 0.262606 0.51291  -0.0686187222222
 C5 0.514164 0.234193 0.46545  -0.0686187222222
 C5 0.570721 0.363928 0.4609  -0.0686187222222
 C5 0.514654 0.391338 0.51096  -0.0686187222222
 C4 0.638551 0.253529 0.39169  0.668303777778
 C3 0.572032 0.284587 0.43871  -0.152408722222
 N1 0.268741 0.967432 0.5436  -0.366641222222
 N2 0.269477 0.047992 0.54836  -0.0849062222222
 N1 0.252099 0.066773 0.22649  -0.366641222222
 N2 0.183502 0.02923 0.2376  -0.0849062222222
 N1 0.771567 0.534501 0.45661  -0.366641222222
 N2 0.771901 0.454007 0.45084  -0.0849062222222
 N1 0.747383 0.433835 0.77228  -0.366641222222
 N2 0.678133 0.471699 0.75996  -0.0849062222222
 N1 0.768195 0.467941 0.95631  -0.366641222222
 N2 0.769123 0.548505 0.95137  -0.0849062222222
 N1 0.752078 0.567643 0.27321  -0.366641222222
 N2 0.683572 0.529933 0.26215  -0.0849062222222
 N1 0.271943 0.034383 0.04315  -0.366641222222
 N2 0.272322 0.953921 0.04914  -0.0849062222222
 N1 0.247398 0.933557 0.72775  -0.366641222222
 N2 0.178224 0.971589 0.73994  -0.0849062222222
 N1 0.231781 0.532082 0.0437  -0.366641222222
 N2 0.230849 0.451518 0.04866  -0.0849062222222
 N1 0.247857 0.432372 0.72682  -0.366641222222
 N2 0.316364 0.470077 0.73788  -0.0849062222222
 N1 0.728058 0.965622 0.95682  -0.366641222222
 N2 0.727682 0.046083 0.95082  -0.0849062222222
 N1 0.752575 0.066487 0.27220  -0.366641222222
 N2 0.821764 0.028479 0.26003  -0.0849062222222
 N1 0.731291 0.032501 0.45636  -0.366641222222
 N2 0.730506 0.95194 0.45164  -0.0849062222222
 N1 0.747884 0.933263 0.77352  -0.366641222222
 N2 0.816476 0.970808 0.76234  -0.0849062222222
 N1 0.228541 0.465568 0.54342  -0.366641222222
 N2 0.228159 0.546067 0.54916  -0.0849062222222
 N1 0.252609 0.566178 0.22770  -0.366641222222
 N2 0.321849 0.528295 0.24002  -0.0849062222222
 O1 0.163799 0.833398 0.59681  -0.632416222222
 O2 0.090159 0.943266 0.61912  -0.610331222222
 O1 0.860265 0.677631 0.39054  -0.632416222222
 O2 0.812473 0.800336 0.36500  -0.610331222222
 O1 0.665808 0.669845 0.40361  -0.632416222222
 O2 0.596299 0.558985 0.38300  -0.610331222222
 O1 0.357764 0.823076 0.61175  -0.632416222222
 O2 0.313473 0.700202 0.63710  -0.610331222222
 O1 0.663917 0.333436 0.90318  -0.632416222222
 O2 0.590169 0.443278 0.88078  -0.610331222222
 O1 0.360212 0.177465 0.10947  -0.632416222222
 O2 0.312628 0.300159 0.13517  -0.610331222222
 O1 0.165543 0.16896 0.09654  -0.632416222222
 O2 0.096501 0.057478 0.11611  -0.610331222222
 O1 0.858803 0.325152 0.88995  -0.632416222222
 O2 0.813736 0.203143 0.86284  -0.610331222222
 O1 0.336088 0.666583 0.09679  -0.632416222222
 O2 0.409834 0.556741 0.11920  -0.610331222222
 O1 0.639793 0.822538 0.89050  -0.632416222222
 O2 0.68739 0.699846 0.86482  -0.610331222222
 O1 0.834469 0.83105 0.90343  -0.632416222222
 O2 0.903507 0.942535 0.88386  -0.610331222222
 O1 0.141202 0.674882 0.11005  -0.632416222222
 O2 0.186283 0.796892 0.13712  -0.610331222222
 O1 0.836044 0.166609 0.40316  -0.632416222222
 O2 0.909802 0.056812 0.38083  -0.610331222222
 O1 0.139665 0.322452 0.60941  -0.632416222222
 O2 0.187387 0.199724 0.63497  -0.610331222222
 O1 0.334012 0.330081 0.596  -0.632416222222
 O2 0.403784 0.44073 0.61730  -0.610331222222
 O1 0.641483 0.176293 0.38804  -0.632416222222
 O2 0.686317 0.299092 0.36329  -0.610331222222
