#======================================================================

# CRYSTAL DATA

#----------------------------------------------------------------------

data_VESTA_phase_1


_pd_phase_name                         MOF
_cell_length_a                         15.40500
_cell_length_b                         21.44900
_cell_length_c                         21.44000
_cell_angle_alpha                      119.83600
_cell_angle_beta                       90.02000
_cell_angle_gamma                      89.97400
_symmetry_space_group_name_H-M         "P 1"
_symmetry_Int_Tables_number            1

loop_
_symmetry_equiv_pos_as_xyz
   "x, y, z"

loop_
   _atom_site_label
   _atom_site_fract_x
   _atom_site_fract_y
   _atom_site_fract_z
 _atom_site_charge
 Zn1 0.41541 0.601559 0.3014  0.888362962963
 Zn1 0.915292 0.60168 0.30152  0.888362962963
 Zn1 0.08443 0.698879 0.39870  0.888362962963
 Zn1 0.584274 0.698929 0.39878  0.888362962963
 Zn1 0.250701 0.699433 0.30082  0.888362962963
 Zn1 0.748996 0.699347 0.30078  0.888362962963
 Zn1 0.415125 0.398535 0.69861  0.888362962963
 Zn1 0.915161 0.398483 0.69856  0.888362962963
 Zn1 0.083784 0.301383 0.60141  0.888362962963
 Zn1 0.583916 0.301339 0.60136  0.888362962963
 Zn1 0.248565 0.301133 0.6995  0.888362962963
 Zn1 0.748605 0.301084 0.69947  0.888362962963
 H1 0.35083 0.748227 0.15519  -0.0194237037037
 H1 0.850327 0.748201 0.15513  -0.0194237037037
 H1 0.417265 0.76861 0.0630  -0.0194237037037
 H1 0.916998 0.768612 0.06309  -0.0194237037037
 H1 0.078004 0.634792 0.16005  -0.0194237037037
 H1 0.578488 0.634529 0.15965  -0.0194237037037
 H1 0.145504 0.65341 0.06618  -0.0194237037037
 H1 0.64579 0.653193 0.06572  -0.0194237037037
 H1 0.01695 0.407389 0.25243  -0.0194237037037
 H1 0.517063 0.407507 0.25250  -0.0194237037037
 H1 0.08363 0.294724 0.23131  -0.0194237037037
 H1 0.583666 0.294795 0.2313  -0.0194237037037
 H1 0.245695 0.524276 0.36438  -0.0194237037037
 H1 0.74585 0.524285 0.364  -0.0194237037037
 H1 0.313272 0.411551 0.34487  -0.0194237037037
 H1 0.813363 0.411507 0.344  -0.0194237037037
 H1 0.183571 0.845441 0.59322  -0.0194237037037
 H1 0.683556 0.845379 0.59309  -0.0194237037037
 H1 0.249979 0.937438 0.70542  -0.0194237037037
 H1 0.749989 0.937327 0.70529  -0.0194237037037
 H1 0.411798 0.840398 0.47548  -0.0194237037037
 H1 0.911745 0.840343 0.47531  -0.0194237037037
 H1 0.479148 0.934074 0.58777  -0.0194237037037
 H1 0.979137 0.933958 0.58761  -0.0194237037037
 H1 0.350129 0.252216 0.84517  -0.0194237037037
 H1 0.850177 0.25222 0.84519  -0.0194237037037
 H1 0.41692 0.231731 0.93716  -0.0194237037037
 H1 0.91696 0.231782 0.93720  -0.0194237037037
 H1 0.077852 0.365351 0.84005  -0.0194237037037
 H1 0.577853 0.365304 0.84002  -0.0194237037037
 H1 0.145484 0.346703 0.9339  -0.0194237037037
 H1 0.645499 0.346596 0.93384  -0.0194237037037
 H1 0.015651 0.593719 0.74718  -0.0194237037037
 H1 0.515656 0.593705 0.74714  -0.0194237037037
 H1 0.082677 0.706128 0.768  -0.0194237037037
 H1 0.58268 0.706112 0.76815  -0.0194237037037
 H1 0.244308 0.476234 0.63565  -0.0194237037037
 H1 0.744325 0.476228 0.63563  -0.0194237037037
 H1 0.312367 0.588732 0.65524  -0.0194237037037
 H1 0.812389 0.588728 0.65523  -0.0194237037037
 H1 0.183331 0.154647 0.40748  -0.0194237037037
 H1 0.68347 0.154532 0.40739  -0.0194237037037
 H1 0.249572 0.062732 0.29532  -0.0194237037037
 H1 0.749722 0.062595 0.29528  -0.0194237037037
 H1 0.412066 0.160041 0.52498  -0.0194237037037
 H1 0.91211 0.159896 0.52497  -0.0194237037037
 H1 0.479363 0.066496 0.41265  -0.0194237037037
 H1 0.979409 0.066284 0.41269  -0.0194237037037
 H1 0.31575 0.592659 0.84523  -0.0194237037037
 H1 0.815894 0.592569 0.84510  -0.0194237037037
 H1 0.249834 0.705033 0.9373  -0.0194237037037
 H1 0.749994 0.704997 0.93724  -0.0194237037037
 H1 0.086981 0.475711 0.84053  -0.0194237037037
 H1 0.587023 0.475712 0.8403  -0.0194237037037
 H1 0.020225 0.58813 0.93450  -0.0194237037037
 H1 0.520273 0.588175 0.9342  -0.0194237037037
 H1 0.149027 0.154965 0.74800  -0.0194237037037
 H1 0.649066 0.154997 0.74801  -0.0194237037037
 H1 0.082653 0.0628 0.76831  -0.0194237037037
 H1 0.582688 0.062861 0.76838  -0.0194237037037
 H1 0.421244 0.159682 0.63457  -0.0194237037037
 H1 0.921253 0.159646 0.63451  -0.0194237037037
 H1 0.35401 0.065721 0.65318  -0.0194237037037
 H1 0.854031 0.065637 0.65306  -0.0194237037037
 H1 0.483414 0.253251 0.40718  -0.0194237037037
 H1 0.983417 0.253209 0.40715  -0.0194237037037
 H1 0.417483 0.232705 0.29442  -0.0194237037037
 H1 0.917486 0.232661 0.294  -0.0194237037037
 H1 0.254202 0.364752 0.5236  -0.0194237037037
 H1 0.754215 0.364729 0.52359  -0.0194237037037
 H1 0.187306 0.345731 0.41082  -0.0194237037037
 H1 0.687321 0.345714 0.41080  -0.0194237037037
 H1 0.31644 0.407311 0.15435  -0.0194237037037
 H1 0.816339 0.40735 0.15434  -0.0194237037037
 H1 0.250139 0.295219 0.06252  -0.0194237037037
 H1 0.750149 0.295195 0.06246  -0.0194237037037
 H1 0.087836 0.524861 0.15966  -0.0194237037037
 H1 0.587565 0.524702 0.15961  -0.0194237037037
 H1 0.020459 0.412577 0.06613  -0.0194237037037
 H1 0.520339 0.412382 0.06600  -0.0194237037037
 H1 0.149491 0.845138 0.25212  -0.0194237037037
 H1 0.649016 0.845091 0.25212  -0.0194237037037
 H1 0.08296 0.937344 0.23188  -0.0194237037037
 H1 0.582702 0.93737 0.23188  -0.0194237037037
 H1 0.421243 0.840583 0.36559  -0.0194237037037
 H1 0.921704 0.840187 0.36531  -0.0194237037037
 H1 0.354014 0.934601 0.34699  -0.0194237037037
 H1 0.854276 0.934141 0.34675  -0.0194237037037
 H1 0.483342 0.746902 0.59300  -0.0194237037037
 H1 0.983454 0.746926 0.59309  -0.0194237037037
 H1 0.417042 0.767818 0.70570  -0.0194237037037
 H1 0.917084 0.767827 0.70577  -0.0194237037037
 H1 0.254185 0.635617 0.47632  -0.0194237037037
 H1 0.754306 0.63571 0.4763  -0.0194237037037
 H1 0.186916 0.655005 0.58908  -0.0194237037037
 H1 0.686981 0.65505 0.58906  -0.0194237037037
 C1 0.416585 0.677506 0.21870  0.588551296296
 C1 0.915972 0.677453 0.21880  0.588551296296
 C2 0.459332 0.689048 0.16273  -0.167761203704
 C2 0.958799 0.689138 0.1629  -0.167761203704
 C3 0.415327 0.727122 0.13503  0.35562087963
 C3 0.914888 0.727159 0.13510  0.35562087963
 C3 0.453441 0.738364 0.08261  0.35562087963
 C3 0.953138 0.738406 0.08272  0.35562087963
 C3 0.042476 0.66305 0.13772  0.35562087963
 C3 0.542931 0.662844 0.13740  0.35562087963
 C3 0.080571 0.674254 0.08525  0.35562087963
 C3 0.580902 0.674074 0.08491  0.35562087963
 C2 0.036335 0.711709 0.05666  -0.167761203704
 C2 0.536582 0.711601 0.0564  -0.167761203704
 C4 0.019367 0.745718 0.95715  0.56269962963
 C4 0.519414 0.745719 0.95702  0.56269962963
 C1 0.083434 0.541244 0.32305  0.588551296296
 C1 0.58361 0.541331 0.32318  0.588551296296
 C2 0.126033 0.47345 0.3107  -0.167761203704
 C2 0.626171 0.473518 0.3108  -0.167761203704
 C3 0.081762 0.408017 0.27295  0.35562087963
 C3 0.58187 0.408101 0.27301  0.35562087963
 C3 0.120036 0.344276 0.26123  0.35562087963
 C3 0.620096 0.344333 0.26126  0.35562087963
 C3 0.210035 0.473927 0.3361  0.35562087963
 C3 0.710168 0.473949 0.33627  0.35562087963
 C3 0.248141 0.410169 0.32448  0.35562087963
 C3 0.748232 0.410164 0.32452  0.35562087963
 C2 0.203542 0.344502 0.28728  -0.167761203704
 C2 0.703597 0.344515 0.28730  -0.167761203704
 C4 0.186182 0.211379 0.25401  0.56269962963
 C4 0.686187 0.211376 0.25400  0.56269962963
 C1 0.249712 0.781772 0.45936  0.588551296296
 C1 0.749546 0.781755 0.4592  0.588551296296
 C2 0.292378 0.837606 0.52674  -0.167761203704
 C2 0.792333 0.837534 0.5265  -0.167761203704
 C3 0.248202 0.865425 0.59230  0.35562087963
 C3 0.748189 0.865349 0.59215  0.35562087963
 C3 0.286323 0.917731 0.65578  0.35562087963
 C3 0.786329 0.917628 0.65564  0.35562087963
 C3 0.376145 0.862709 0.52589  0.35562087963
 C3 0.876104 0.86263 0.52573  0.35562087963
 C3 0.41414 0.915044 0.58943  0.35562087963
 C3 0.914126 0.91494 0.58928  0.35562087963
 C2 0.369657 0.94362 0.65522  -0.167761203704
 C2 0.869666 0.943518 0.6550  -0.167761203704
 C4 0.35268 0.042693 0.78844  0.56269962963
 C4 0.852672 0.042624 0.78833  0.56269962963
 C1 0.415626 0.322968 0.78151  0.588551296296
 C1 0.915658 0.322959 0.7815  0.588551296296
 C2 0.458617 0.311118 0.83727  -0.167761203704
 C2 0.958642 0.311144 0.83729  -0.167761203704
 C3 0.414735 0.273164 0.86513  0.35562087963
 C3 0.91477 0.273195 0.86516  0.35562087963
 C3 0.453075 0.261839 0.91746  0.35562087963
 C3 0.95311 0.261899 0.9175  0.35562087963
 C3 0.04237 0.337125 0.86240  0.35562087963
 C3 0.542371 0.337069 0.8623  0.35562087963
 C3 0.080542 0.325887 0.91485  0.35562087963
 C3 0.58055 0.325798 0.91479  0.35562087963
 C2 0.036342 0.28851 0.94352  -0.167761203704
 C2 0.536332 0.288421 0.94345  -0.167761203704
 C4 0.019324 0.254626 0.04312  0.56269962963
 C4 0.519319 0.25456 0.04308  0.56269962963
 C1 0.081664 0.459638 0.67688  0.588551296296
 C1 0.58168 0.459623 0.67685  0.588551296296
 C2 0.124608 0.527305 0.68908  -0.167761203704
 C2 0.62462 0.527291 0.68904  -0.167761203704
 C3 0.080543 0.592879 0.72673  0.35562087963
 C3 0.580552 0.592865 0.72669  0.35562087963
 C3 0.119054 0.656521 0.73841  0.35562087963
 C3 0.619061 0.656508 0.73837  0.35562087963
 C3 0.20873 0.526657 0.66378  0.35562087963
 C3 0.708746 0.52665 0.66375  0.35562087963
 C3 0.247125 0.59033 0.67552  0.35562087963
 C3 0.747142 0.590325 0.675  0.35562087963
 C2 0.202728 0.656156 0.71259  -0.167761203704
 C2 0.702745 0.65615 0.71257  -0.167761203704
 C4 0.186114 0.78968 0.74663  0.56269962963
 C4 0.686124 0.78968 0.74663  0.56269962963
 C1 0.249641 0.21864 0.5412  0.588551296296
 C1 0.749701 0.218548 0.54121  0.588551296296
 C2 0.292377 0.162767 0.47390  -0.167761203704
 C2 0.792457 0.162643 0.47386  -0.167761203704
 C3 0.248062 0.134776 0.40838  0.35562087963
 C3 0.748183 0.134646 0.40832  0.35562087963
 C3 0.286159 0.082509 0.34485  0.35562087963
 C3 0.786287 0.082348 0.34482  0.35562087963
 C3 0.376248 0.137694 0.47463  0.35562087963
 C3 0.876307 0.137542 0.47461  0.35562087963
 C3 0.414257 0.085426 0.41103  0.35562087963
 C3 0.914319 0.085228 0.41103  0.35562087963
 C2 0.369678 0.056756 0.34524  -0.167761203704
 C2 0.869782 0.056554 0.34523  -0.167761203704
 C4 0.352667 0.958234 0.21193  0.56269962963
 C4 0.85272 0.958145 0.21190  0.56269962963
 C1 0.248813 0.459008 0.78154  0.588551296296
 C1 0.748865 0.45896 0.78144  0.588551296296
 C2 0.206608 0.526558 0.83752  -0.167761203704
 C2 0.706685 0.526528 0.83739  -0.167761203704
 C3 0.251115 0.591938 0.86533  0.35562087963
 C3 0.751238 0.591887 0.86519  0.35562087963
 C3 0.213288 0.655519 0.91776  0.35562087963
 C3 0.713422 0.655491 0.91759  0.35562087963
 C3 0.122858 0.525988 0.86281  0.35562087963
 C3 0.622914 0.525982 0.86265  0.35562087963
 C3 0.085212 0.58959 0.91532  0.35562087963
 C3 0.585276 0.589605 0.91512  0.35562087963
 C2 0.129962 0.65522 0.9438  -0.167761203704
 C2 0.630072 0.655215 0.94361  -0.167761203704
 C4 0.147258 0.788445 0.042  0.56269962963
 C4 0.647318 0.788436 0.04269  0.56269962963
 C1 0.083275 0.218488 0.67732  0.588551296296
 C1 0.583301 0.218496 0.67732  0.588551296296
 C2 0.040471 0.162593 0.68891  -0.167761203704
 C2 0.540491 0.162622 0.68894  -0.167761203704
 C3 0.084524 0.134829 0.72690  0.35562087963
 C3 0.584552 0.134871 0.7269  0.35562087963
 C3 0.04644 0.082396 0.73811  0.35562087963
 C3 0.546468 0.082459 0.73818  0.35562087963
 C3 0.456852 0.137371 0.66281  0.35562087963
 C3 0.956859 0.137324 0.66275  0.35562087963
 C3 0.418919 0.08487 0.67402  0.35562087963
 C3 0.91893 0.084798 0.67392  0.35562087963
 C2 0.463313 0.056324 0.71145  -0.167761203704
 C2 0.963312 0.056242 0.71135  -0.167761203704
 C4 0.480556 0.957025 0.74566  0.56269962963
 C4 0.980551 0.956981 0.74560  0.56269962963
 C1 0.416102 0.323035 0.54085  0.588551296296
 C1 0.9161 0.322995 0.54082  0.588551296296
 C2 0.374008 0.311217 0.47302  -0.167761203704
 C2 0.874011 0.311179 0.47299  -0.167761203704
 C3 0.41866 0.273812 0.40770  0.35562087963
 C3 0.918664 0.27377 0.40767  0.35562087963
 C3 0.380796 0.262407 0.3438  0.35562087963
 C3 0.880803 0.262369 0.34386  0.35562087963
 C3 0.290131 0.336783 0.47335  0.35562087963
 C3 0.790138 0.336753 0.4733  0.35562087963
 C3 0.252413 0.325356 0.40953  0.35562087963
 C3 0.752424 0.325332 0.40952  0.35562087963
 C2 0.297274 0.288345 0.34393  -0.167761203704
 C2 0.797287 0.288318 0.34391  -0.167761203704
 C4 0.313987 0.253608 0.21018  0.56269962963
 C4 0.813997 0.253601 0.2101  0.56269962963
 C1 0.250297 0.541066 0.21820  0.588551296296
 C1 0.749899 0.541059 0.21820  0.588551296296
 C2 0.207475 0.473747 0.16238  -0.167761203704
 C2 0.707271 0.473674 0.16233  -0.167761203704
 C3 0.251724 0.40823 0.13446  0.35562087963
 C3 0.75162 0.408209 0.13442  0.35562087963
 C3 0.213599 0.344745 0.08221  0.35562087963
 C3 0.713565 0.344699 0.08215  0.35562087963
 C3 0.123598 0.474501 0.13733  0.35562087963
 C3 0.623388 0.474372 0.13727  0.35562087963
 C3 0.085566 0.410933 0.08506  0.35562087963
 C3 0.585446 0.410794 0.0849  0.35562087963
 C2 0.130108 0.34516 0.05641  -0.167761203704
 C2 0.630064 0.345062 0.05634  -0.167761203704
 C4 0.147249 0.211878 0.95805  0.56269962963
 C4 0.647247 0.211814 0.95801  0.56269962963
 C1 0.083793 0.78148 0.32279  0.588551296296
 C1 0.583216 0.781595 0.32277  0.588551296296
 C2 0.040959 0.837356 0.31108  -0.167761203704
 C2 0.540456 0.837541 0.31119  -0.167761203704
 C3 0.084926 0.865181 0.27313  0.35562087963
 C3 0.584512 0.865263 0.273  0.35562087963
 C3 0.046738 0.917641 0.26196  0.35562087963
 C3 0.546454 0.917744 0.26201  0.35562087963
 C3 0.456834 0.86286 0.33733  0.35562087963
 C3 0.957264 0.862537 0.33711  0.35562087963
 C3 0.418909 0.915393 0.32614  0.35562087963
 C3 0.919216 0.91505 0.32594  0.35562087963
 C2 0.463303 0.943926 0.2887  -0.167761203704
 C2 0.96353 0.943709 0.28860  -0.167761203704
 C4 0.480588 0.043325 0.25464  0.56269962963
 C4 0.980633 0.043215 0.25464  0.56269962963
 C1 0.416344 0.676909 0.45915  0.588551296296
 C1 0.916491 0.676948 0.45920  0.588551296296
 C2 0.374017 0.68898 0.52700  -0.167761203704
 C2 0.874139 0.689039 0.52705  -0.167761203704
 C3 0.418514 0.726467 0.59240  0.35562087963
 C3 0.918614 0.7265 0.59247  0.35562087963
 C3 0.380428 0.738091 0.65620  0.35562087963
 C3 0.880487 0.738113 0.65625  0.35562087963
 C3 0.290025 0.663625 0.5266  0.35562087963
 C3 0.79013 0.663697 0.52665  0.35562087963
 C3 0.252088 0.675269 0.5904  0.35562087963
 C3 0.752158 0.675317 0.59044  0.35562087963
 C2 0.296827 0.712293 0.65611  -0.167761203704
 C2 0.796876 0.712317 0.65613  -0.167761203704
 C4 0.313823 0.746549 0.78973  0.56269962963
 C4 0.813829 0.74655 0.78973  0.56269962963
 C5 0.083283 0.724238 0.0001  -0.41428037037
 C5 0.583416 0.724212 0.99993  -0.41428037037
 C5 0.250329 0.27551 0.27481  -0.41428037037
 C5 0.750345 0.2755 0.27480  -0.41428037037
 C5 0.41652 0.999879 0.72413  -0.41428037037
 C5 0.916508 0.999793 0.72402  -0.41428037037
 C5 0.083235 0.27613 0.00018  -0.41428037037
 C5 0.583204 0.276032 0.  -0.41428037037
 C5 0.249898 0.725088 0.72521  -0.41428037037
 C5 0.749915 0.725091 0.72521  -0.41428037037
 C5 0.416568 0.000499 0.27622  -0.41428037037
 C5 0.916688 0.000323 0.27618  -0.41428037037
 O1 0.456097 0.63738 0.23814  -0.718607037037
 O1 0.955963 0.63767 0.23845  -0.718607037037
 O1 0.344126 0.708737 0.2428  -0.718607037037
 O1 0.843167 0.708102 0.24261  -0.718607037037
 O1 0.125013 0.599969 0.36144  -0.718607037037
 O1 0.625032 0.600088 0.36182  -0.718607037037
 O1 0.009488 0.535304 0.29426  -0.718607037037
 O1 0.509823 0.535382 0.29416  -0.718607037037
 O1 0.289412 0.762718 0.40006  -0.718607037037
 O1 0.78904 0.762615 0.39981  -0.718607037037
 O1 0.177313 0.757414 0.46630  -0.718607037037
 O1 0.677115 0.757512 0.46629  -0.718607037037
 O1 0.456064 0.361967 0.76116  -0.718607037037
 O1 0.956087 0.361962 0.76115  -0.718607037037
 O1 0.342204 0.293213 0.75852  -0.718607037037
 O1 0.842253 0.293176 0.75849  -0.718607037037
 O1 0.122481 0.400671 0.63781  -0.718607037037
 O1 0.622502 0.400658 0.63777  -0.718607037037
 O1 0.00815 0.465967 0.70644  -0.718607037037
 O1 0.508181 0.465955 0.70643  -0.718607037037
 O1 0.289159 0.237697 0.60067  -0.718607037037
 O1 0.789186 0.237638 0.60063  -0.718607037037
 O1 0.177287 0.243106 0.53427  -0.718607037037
 O1 0.677355 0.243008 0.53417  -0.718607037037
 O1 0.207943 0.400033 0.76167  -0.718607037037
 O1 0.707992 0.399993 0.76160  -0.718607037037
 O1 0.321975 0.465435 0.75787  -0.718607037037
 O1 0.822021 0.465373 0.75776  -0.718607037037
 O1 0.043853 0.237797 0.63705  -0.718607037037
 O1 0.543902 0.23779 0.63703  -0.718607037037
 O1 0.155661 0.242675 0.70865  -0.718607037037
 O1 0.655692 0.242673 0.70865  -0.718607037037
 O1 0.374729 0.361859 0.59963  -0.718607037037
 O1 0.874735 0.361814 0.59960  -0.718607037037
 O1 0.489425 0.293349 0.53489  -0.718607037037
 O1 0.989428 0.293314 0.53485  -0.718607037037
 O1 0.210794 0.600457 0.23736  -0.718607037037
 O1 0.709948 0.600286 0.23742  -0.718607037037
 O1 0.322749 0.533985 0.24248  -0.718607037037
 O1 0.822485 0.534226 0.24244  -0.718607037037
 O1 0.043988 0.762098 0.36284  -0.718607037037
 O1 0.543705 0.762172 0.36289  -0.718607037037
 O1 0.156427 0.757442 0.2919  -0.718607037037
 O1 0.65569 0.757472 0.29158  -0.718607037037
 O1 0.374821 0.638386 0.40038  -0.718607037037
 O1 0.87483 0.638582 0.40047  -0.718607037037
 O1 0.489999 0.706071 0.46508  -0.718607037037
 O1 0.99027 0.705919 0.46510  -0.718607037037
 F1 0.059295 0.744161 0.90006  -0.320114814815
 F1 0.559255 0.744175 0.89990  -0.320114814815
 F1 0.45174 0.698604 0.93052  -0.320114814815
 F1 0.951723 0.698599 0.93055  -0.320114814815
 F1 0.485191 0.812622 0.99717  -0.320114814815
 F1 0.98517 0.81263 0.99723  -0.320114814815
 F1 0.226043 0.156024 0.25593  -0.320114814815
 F1 0.726046 0.156021 0.25593  -0.320114814815
 F1 0.118577 0.232012 0.30132  -0.320114814815
 F1 0.618584 0.232014 0.30132  -0.320114814815
 F1 0.151772 0.18447 0.18711  -0.320114814815
 F1 0.651776 0.184471 0.18711  -0.320114814815
 F1 0.392705 0.0996 0.84372  -0.320114814815
 F1 0.892737 0.099501 0.84360  -0.320114814815
 F1 0.284997 0.069461 0.76796  -0.320114814815
 F1 0.78499 0.069444 0.76792  -0.320114814815
 F1 0.318491 0.002554 0.81538  -0.320114814815
 F1 0.818486 0.002492 0.81528  -0.320114814815
 F1 0.059213 0.256042 0.10020  -0.320114814815
 F1 0.559224 0.256023 0.1001  -0.320114814815
 F1 0.451625 0.301613 0.06959  -0.320114814815
 F1 0.95163 0.301663 0.06963  -0.320114814815
 F1 0.485155 0.187665 0.00291  -0.320114814815
 F1 0.985164 0.187743 0.00291  -0.320114814815
 F1 0.226351 0.845622 0.74630  -0.320114814815
 F1 0.726358 0.845625 0.74630  -0.320114814815
 F1 0.118788 0.770243 0.69909  -0.320114814815
 F1 0.618798 0.770244 0.69909  -0.320114814815
 F1 0.15149 0.815585 0.81327  -0.320114814815
 F1 0.651497 0.815582 0.81326  -0.320114814815
 F1 0.392523 0.901996 0.15565  -0.320114814815
 F1 0.892516 0.901914 0.15557  -0.320114814815
 F1 0.285271 0.930651 0.23185  -0.320114814815
 F1 0.785291 0.930611 0.23184  -0.320114814815
 F1 0.318265 0.99973 0.18664  -0.320114814815
 F1 0.818304 0.999693 0.18666  -0.320114814815
 F1 0.107332 0.843827 0.09972  -0.320114814815
 F1 0.607317 0.843743 0.09962  -0.320114814815
 F1 0.214975 0.76796 0.06952  -0.320114814815
 F1 0.714998 0.767961 0.06946  -0.320114814815
 F1 0.181486 0.815209 0.00251  -0.320114814815
 F1 0.681527 0.815302 0.00249  -0.320114814815
 F1 0.440733 0.899946 0.74417  -0.320114814815
 F1 0.940744 0.899912 0.74414  -0.320114814815
 F1 0.048252 0.930484 0.69851  -0.320114814815
 F1 0.54825 0.930517 0.69854  -0.320114814815
 F1 0.014765 0.997173 0.81252  -0.320114814815
 F1 0.514787 0.997183 0.8125  -0.320114814815
 F1 0.273705 0.253703 0.1540  -0.320114814815
 F1 0.773711 0.253704 0.15408  -0.320114814815
 F1 0.38134 0.301049 0.22949  -0.320114814815
 F1 0.881349 0.301043 0.22948  -0.320114814815
 F1 0.34848 0.186966 0.1845  -0.320114814815
 F1 0.848486 0.186957 0.18457  -0.320114814815
 F1 0.10751 0.155531 0.9018  -0.320114814815
 F1 0.607531 0.155446 0.90176  -0.320114814815
 F1 0.214704 0.231824 0.93055  -0.320114814815
 F1 0.714698 0.231797 0.93053  -0.320114814815
 F1 0.181673 0.186681 0.99965  -0.320114814815
 F1 0.681681 0.186657 0.9996  -0.320114814815
 F1 0.44084 0.100438 0.25604  -0.320114814815
 F1 0.940813 0.100297 0.25605  -0.320114814815
 F1 0.048355 0.069656 0.30167  -0.320114814815
 F1 0.548337 0.069691 0.30167  -0.320114814815
 F1 0.014815 0.002972 0.18773  -0.320114814815
 F1 0.514798 0.003043 0.18774  -0.320114814815
 F1 0.273665 0.7463 0.8457  -0.320114814815
 F1 0.773668 0.746301 0.84577  -0.320114814815
 F1 0.381164 0.699019 0.77026  -0.320114814815
 F1 0.881169 0.699018 0.77027  -0.320114814815
 F1 0.348482 0.813137 0.81552  -0.320114814815
 F1 0.848488 0.813138 0.81553  -0.320114814815
