#======================================================================

# CRYSTAL DATA

#----------------------------------------------------------------------

data_VESTA_phase_1


_pd_phase_name                         MOF
_cell_length_a                         13.18300
_cell_length_b                         13.17300
_cell_length_c                         13.98000
_cell_angle_alpha                      105.56500
_cell_angle_beta                       105.29200
_cell_angle_gamma                      93.37900
_symmetry_space_group_name_H-M         "P 1"
_symmetry_Int_Tables_number            1

loop_
_symmetry_equiv_pos_as_xyz
   "x, y, z"

loop_
   _atom_site_label
   _atom_site_fract_x
   _atom_site_fract_y
   _atom_site_fract_z
 _atom_site_charge
 Zn1 0.181642 0.866902 0.86240  0.940169166667
 Zn1 0.133247 0.818132 0.63762  0.940169166667
 Zn1 0.818384 0.133123 0.13762  0.940169166667
 Zn1 0.866778 0.181893 0.36240  0.940169166667
 H1 0.52567 0.900898 0.94753  0.119646666667
 H1 0.716625 0.897919 0.96197  0.119646666667
 H1 0.44866 0.823475 0.61565  0.119646666667
 H1 0.860249 0.864379 0.87487  0.119646666667
 H1 0.038431 0.921674 0.98494  0.119646666667
 H1 0.008311 0.91283 0.1504  0.119646666667
 H1 0.313512 0.801821 0.22361  0.119646666667
 H1 0.403528 0.885018 0.04369  0.119646666667
 H1 0.415304 0.783033 0.10640  0.119646666667
 H1 0.341809 0.754 0.9723  0.119646666667
 H1 0.785779 0.804314 0.54475  0.119646666667
 H1 0.594346 0.806462 0.53069  0.119646666667
 H1 0.098203 0.472356 0.55163  0.119646666667
 H1 0.101341 0.281388 0.53790  0.119646666667
 H1 0.176087 0.55235 0.88374  0.119646666667
 H1 0.135551 0.138643 0.62566  0.119646666667
 H1 0.077862 0.961097 0.51567  0.119646666667
 H1 0.086228 0.991024 0.34992  0.119646666667
 H1 0.197548 0.685424 0.27523  0.119646666667
 H1 0.115237 0.595378 0.45548  0.119646666667
 H1 0.217115 0.583837 0.39237  0.119646666667
 H1 0.245821 0.657687 0.52656  0.119646666667
 H1 0.195979 0.215979 0.9560  0.119646666667
 H1 0.193438 0.407488 0.96942  0.119646666667
 H1 0.474356 0.099125 0.05250  0.119646666667
 H1 0.283401 0.102102 0.03806  0.119646666667
 H1 0.551366 0.17655 0.38438  0.119646666667
 H1 0.139777 0.135643 0.12516  0.119646666667
 H1 0.961598 0.07835 0.01509  0.119646666667
 H1 0.991721 0.087194 0.84956  0.119646666667
 H1 0.686519 0.198198 0.77641  0.119646666667
 H1 0.596502 0.115002 0.95633  0.119646666667
 H1 0.584723 0.216982 0.89362  0.119646666667
 H1 0.658216 0.246022 0.02765  0.119646666667
 H1 0.214247 0.195708 0.45528  0.119646666667
 H1 0.40568 0.193561 0.46933  0.119646666667
 H1 0.901824 0.527668 0.44839  0.119646666667
 H1 0.898688 0.718636 0.46212  0.119646666667
 H1 0.823945 0.447675 0.11628  0.119646666667
 H1 0.864478 0.861382 0.37436  0.119646666667
 H1 0.922167 0.038927 0.48435  0.119646666667
 H1 0.913804 0.008999 0.65010  0.119646666667
 H1 0.802487 0.3146 0.72479  0.119646666667
 H1 0.884794 0.404646 0.54455  0.119646666667
 H1 0.782917 0.416187 0.60765  0.119646666667
 H1 0.75421 0.342337 0.47347  0.119646666667
 H1 0.804057 0.784048 0.04395  0.119646666667
 H1 0.8066 0.592538 0.03060  0.119646666667
 C1 0.359431 0.856278 0.77102  0.672654166667
 C2 0.47561 0.860311 0.77965  -0.00734283333333
 C3 0.552292 0.882748 0.87820  -0.130918333333
 C3 0.658428 0.880726 0.88592  -0.130918333333
 C3 0.508241 0.839964 0.6907  -0.130918333333
 C2 0.693661 0.857889 0.79559  -0.00734283333333
 C3 0.80169 0.852874 0.80014  -0.130918333333
 C4 0.098087 0.897355 0.04146  0.190099166667
 C3 0.081579 0.89125 0.13378  -0.130918333333
 C2 0.158688 0.853873 0.20093  -0.00734283333333
 C3 0.250181 0.828335 0.1722  -0.130918333333
 C5 0.263303 0.838195 0.07912  0.367279166667
 C6 0.361731 0.813083 0.04914  -0.443820833333
 C2 0.834763 0.834202 0.71146  -0.00734283333333
 C1 0.950528 0.834331 0.71913  0.672654166667
 C3 0.758661 0.818444 0.61365  -0.130918333333
 C3 0.652623 0.820094 0.60621  -0.130918333333
 C2 0.616844 0.839498 0.69605  -0.00734283333333
 C1 0.143302 0.640172 0.72810  0.672654166667
 C2 0.139117 0.523913 0.7196  -0.00734283333333
 C3 0.116508 0.446413 0.62118  -0.130918333333
 C3 0.118649 0.340249 0.61385  -0.130918333333
 C3 0.159533 0.492075 0.80879  -0.130918333333
 C2 0.141728 0.305862 0.70445  -0.00734283333333
 C3 0.147031 0.197873 0.70028  -0.130918333333
 C4 0.102165 0.901326 0.45874  0.190099166667
 C3 0.107977 0.91772 0.36634  -0.130918333333
 C2 0.145309 0.840442 0.2986  -0.00734283333333
 C3 0.171053 0.748893 0.32697  -0.130918333333
 C5 0.1615 0.735896 0.42023  0.367279166667
 C6 0.186913 0.637458 0.44988  -0.443820833333
 C2 0.16588 0.165555 0.78919  -0.00734283333333
 C1 0.165881 0.049691 0.78157  0.672654166667
 C3 0.181688 0.242457 0.88694  -0.130918333333
 C3 0.179794 0.348523 0.89401  -0.130918333333
 C2 0.16017 0.383494 0.80389  -0.00734283333333
 C1 0.640596 0.14375 0.22900  0.672654166667
 C2 0.524416 0.139712 0.22037  -0.00734283333333
 C3 0.447734 0.117276 0.12182  -0.130918333333
 C3 0.341598 0.119296 0.11411  -0.130918333333
 C3 0.491785 0.160061 0.30929  -0.130918333333
 C2 0.306365 0.142132 0.20444  -0.00734283333333
 C3 0.198336 0.147148 0.19988  -0.130918333333
 C4 0.901944 0.102669 0.95856  0.190099166667
 C3 0.918453 0.108772 0.86624  -0.130918333333
 C2 0.841345 0.146149 0.79910  -0.00734283333333
 C3 0.74985 0.171684 0.8277  -0.130918333333
 C5 0.736726 0.161826 0.92090  0.367279166667
 C6 0.638297 0.186936 0.95088  -0.443820833333
 C2 0.165263 0.165823 0.2885  -0.00734283333333
 C1 0.049498 0.16569 0.280  0.672654166667
 C3 0.241365 0.181578 0.38637  -0.130918333333
 C3 0.347403 0.179928 0.39381  -0.130918333333
 C2 0.383182 0.160526 0.30398  -0.00734283333333
 C1 0.856723 0.359853 0.27192  0.672654166667
 C2 0.860915 0.476112 0.28040  -0.00734283333333
 C3 0.883519 0.553611 0.37884  -0.130918333333
 C3 0.88138 0.659775 0.38617  -0.130918333333
 C3 0.840498 0.507951 0.1912  -0.130918333333
 C2 0.858304 0.694163 0.29557  -0.00734283333333
 C3 0.853 0.802152 0.29974  -0.130918333333
 C4 0.897865 0.098698 0.54128  0.190099166667
 C3 0.892055 0.082303 0.63369  -0.130918333333
 C2 0.854724 0.15958 0.70134  -0.00734283333333
 C3 0.828982 0.251131 0.67305  -0.130918333333
 C5 0.838531 0.264128 0.57979  0.367279166667
 C6 0.813118 0.362566 0.55014  -0.443820833333
 C2 0.834149 0.83447 0.21083  -0.00734283333333
 C1 0.83415 0.950335 0.21846  0.672654166667
 C3 0.818347 0.757569 0.11308  -0.130918333333
 C3 0.820242 0.651503 0.10602  -0.130918333333
 C2 0.839863 0.616532 0.19613  -0.00734283333333
 N1 0.185975 0.871611 0.01361  -0.371430833333
 N1 0.1282 0.813434 0.48625  -0.371430833333
 N1 0.814054 0.128411 0.9864  -0.371430833333
 N1 0.87183 0.186589 0.51377  -0.371430833333
 O1 0.334198 0.89427 0.85424  -0.594825833333
 O1 0.294784 0.814016 0.68098  -0.594825833333
 O1 0.977559 0.83554 0.63781  -0.594825833333
 O1 0.013526 0.835476 0.80574  -0.594825833333
 O1 0.10552 0.665143 0.64499  -0.594825833333
 O1 0.185647 0.705208 0.81807  -0.594825833333
 O1 0.164558 0.022873 0.86285  -0.594825833333
 O1 0.164754 0.986331 0.69479  -0.594825833333
 O1 0.665828 0.105756 0.14579  -0.594825833333
 O1 0.705242 0.186008 0.31904  -0.594825833333
 O1 0.022466 0.164486 0.36221  -0.594825833333
 O1 0.9865 0.164549 0.19429  -0.594825833333
 O1 0.894506 0.334881 0.3550  -0.594825833333
 O1 0.81438 0.294817 0.18195  -0.594825833333
 O1 0.835467 0.977152 0.13717  -0.594825833333
 O1 0.835271 0.013694 0.30523  -0.594825833333
