#======================================================================

# CRYSTAL DATA

#----------------------------------------------------------------------

data_VESTA_phase_1


_pd_phase_name                         MOF
_cell_length_a                         20.47200
_cell_length_b                         12.63100
_cell_length_c                         15.38600
_cell_angle_alpha                      90.01100
_cell_angle_beta                       90.00200
_cell_angle_gamma                      90.01200
_symmetry_space_group_name_H-M         "P 1"
_symmetry_Int_Tables_number            1

loop_
_symmetry_equiv_pos_as_xyz
   "x, y, z"

loop_
   _atom_site_label
   _atom_site_fract_x
   _atom_site_fract_y
   _atom_site_fract_z
 _atom_site_charge
 Cd1 0.999997 0.500021 1e-0  0.970045128205
 Cd1 0.500002 0.500018 0.99999  0.970045128205
 Cd1 0.25 0.500016 0.4999  0.970045128205
 Cd1 0.75 0.500018 0.4999  0.970045128205
 Cd1 2e-06 1.3e-05 0.49998  0.970045128205
 Cd1 0.499999 1.1e-05 0.49997  0.970045128205
 Cd1 0.25 1.4e-05 0.99999  0.970045128205
 Cd1 0.750001 1.7e-05 0.99999  0.970045128205
 H1 0.18813 0.758189 0.06706  0.101589128205
 H1 0.688135 0.758192 0.06706  0.101589128205
 H1 0.327144 0.782389 0.86736  0.101589128205
 H1 0.827148 0.78239 0.86736  0.101589128205
 H1 0.260087 0.493503 0.8900  0.101589128205
 H1 0.760086 0.493505 0.89007  0.101589128205
 H1 0.218617 0.473067 0.73064  0.101589128205
 H1 0.718619 0.473068 0.73064  0.101589128205
 H1 0.365822 0.652625 0.61031  0.101589128205
 H1 0.865821 0.652633 0.61031  0.101589128205
 H1 0.061883 0.241877 0.56706  0.101589128205
 H1 0.561884 0.241876 0.56705  0.101589128205
 H1 0.422874 0.217588 0.36736  0.101589128205
 H1 0.922876 0.217592 0.36736  0.101589128205
 H1 0.489907 0.506494 0.39012  0.101589128205
 H1 0.989908 0.506498 0.39013  0.101589128205
 H1 0.031321 0.526994 0.23071  0.101589128205
 H1 0.531314 0.526983 0.2307  0.101589128205
 H1 0.384128 0.347335 0.11035  0.101589128205
 H1 0.884129 0.34734 0.1103  0.101589128205
 H1 0.31186 0.258222 0.43289  0.101589128205
 H1 0.811865 0.258224 0.43290  0.101589128205
 H1 0.172844 0.282398 0.63256  0.101589128205
 H1 0.672844 0.282398 0.63256  0.101589128205
 H1 0.239902 0.993555 0.60983  0.101589128205
 H1 0.739903 0.993554 0.60982  0.101589128205
 H1 0.281367 0.973086 0.76923  0.101589128205
 H1 0.781369 0.973086 0.76923  0.101589128205
 H1 0.134185 0.152537 0.88966  0.101589128205
 H1 0.634191 0.152541 0.88966  0.101589128205
 H1 0.438118 0.741709 0.9328  0.101589128205
 H1 0.938117 0.741712 0.93287  0.101589128205
 H1 0.077123 0.717612 0.13261  0.101589128205
 H1 0.577124 0.71761 0.13260  0.101589128205
 H1 0.010103 0.006462 0.1098  0.101589128205
 H1 0.510103 0.00646 0.10986  0.101589128205
 H1 0.46871 0.026994 0.26928  0.101589128205
 H1 0.968703 0.027 0.26929  0.101589128205
 H1 0.115831 0.847348 0.3896  0.101589128205
 H1 0.615835 0.847354 0.38961  0.101589128205
 H1 0.311866 0.241846 0.93289  0.101589128205
 H1 0.811872 0.241849 0.93289  0.101589128205
 H1 0.172857 0.217647 0.13259  0.101589128205
 H1 0.672858 0.21765 0.13259  0.101589128205
 H1 0.23991 0.506532 0.10988  0.101589128205
 H1 0.739909 0.506535 0.10988  0.101589128205
 H1 0.281381 0.526973 0.26931  0.101589128205
 H1 0.781384 0.526978 0.26931  0.101589128205
 H1 0.13418 0.347406 0.38964  0.101589128205
 H1 0.634188 0.347401 0.38964  0.101589128205
 H1 0.438121 0.758159 0.43289  0.101589128205
 H1 0.938115 0.758161 0.43290  0.101589128205
 H1 0.077126 0.782447 0.63260  0.101589128205
 H1 0.577126 0.782447 0.63259  0.101589128205
 H1 0.010088 0.493541 0.60983  0.101589128205
 H1 0.510089 0.493542 0.60983  0.101589128205
 H1 0.468688 0.473048 0.76924  0.101589128205
 H1 0.968681 0.473047 0.76925  0.101589128205
 H1 0.115875 0.652698 0.88960  0.101589128205
 H1 0.615871 0.652701 0.88960  0.101589128205
 H1 0.188138 0.741812 0.56706  0.101589128205
 H1 0.688139 0.741813 0.56706  0.101589128205
 H1 0.327156 0.717637 0.36739  0.101589128205
 H1 0.827159 0.717642 0.36739  0.101589128205
 H1 0.260097 0.00648 0.39012  0.101589128205
 H1 0.760097 0.006482 0.3901  0.101589128205
 H1 0.218633 0.02695 0.23072  0.101589128205
 H1 0.718634 0.026955 0.23072  0.101589128205
 H1 0.365816 0.847503 0.11029  0.101589128205
 H1 0.865817 0.847508 0.11029  0.101589128205
 H1 0.061882 0.258323 0.06709  0.101589128205
 H1 0.561889 0.258323 0.06707  0.101589128205
 H1 0.422877 0.282425 0.86735  0.101589128205
 H1 0.922881 0.282426 0.8673  0.101589128205
 H1 0.489895 0.993573 0.89009  0.101589128205
 H1 0.989896 0.993575 0.89010  0.101589128205
 H1 0.031296 0.973032 0.73067  0.101589128205
 H1 0.531292 0.973042 0.73067  0.101589128205
 H1 0.38417 0.152685 0.61034  0.101589128205
 H1 0.884179 0.152709 0.61035  0.101589128205
 C1 0.221335 0.73729 0.01502  0.232587628205
 C1 0.72134 0.737291 0.01502  0.232587628205
 C1 0.29196 0.751791 0.91362  0.232587628205
 C1 0.791964 0.751792 0.91362  0.232587628205
 C2 0.295698 0.555601 0.87475  -0.0317748717949
 C2 0.795698 0.555603 0.87475  -0.0317748717949
 C3 0.364503 0.511079 0.90227  0.619355128205
 C3 0.864502 0.51108 0.90227  0.619355128205
 C1 0.260715 0.523561 0.71943  0.232587628205
 C1 0.760717 0.523561 0.71943  0.232587628205
 C1 0.335516 0.61677 0.66009  0.232587628205
 C1 0.835515 0.616777 0.66009  0.232587628205
 C1 0.028682 0.262753 0.51502  0.232587628205
 C1 0.528678 0.262753 0.51501  0.232587628205
 C1 0.458057 0.2482 0.4136  0.232587628205
 C1 0.958058 0.248202 0.41363  0.232587628205
 C2 0.454297 0.444388 0.37480  -0.0317748717949
 C2 0.954299 0.444392 0.37481  -0.0317748717949
 C3 0.385494 0.48891 0.40234  0.619355128205
 C3 0.885495 0.488914 0.40234  0.619355128205
 C1 0.489233 0.476452 0.21948  0.232587628205
 C1 0.989232 0.47646 0.21949  0.232587628205
 C1 0.414441 0.383209 0.16013  0.232587628205
 C1 0.914442 0.383215 0.16013  0.232587628205
 C1 0.278661 0.237315 0.48494  0.232587628205
 C1 0.778665 0.237317 0.48494  0.232587628205
 C1 0.208033 0.251812 0.58631  0.232587628205
 C1 0.708034 0.251812 0.58631  0.232587628205
 C2 0.204307 0.055638 0.6251  -0.0317748717949
 C2 0.704308 0.055636 0.62516  -0.0317748717949
 C3 0.13549 0.0111 0.59765  0.619355128205
 C3 0.635488 0.011103 0.59765  0.619355128205
 C1 0.239284 0.023564 0.78047  0.232587628205
 C1 0.739285 0.023563 0.78047  0.232587628205
 C1 0.164492 0.116718 0.83986  0.232587628205
 C1 0.664498 0.116723 0.83986  0.232587628205
 C1 0.47132 0.762642 0.98492  0.232587628205
 C1 0.971315 0.762644 0.98492  0.232587628205
 C1 0.041943 0.748187 0.08635  0.232587628205
 C1 0.541944 0.748186 0.08634  0.232587628205
 C2 0.045705 0.944385 0.12518  -0.0317748717949
 C2 0.545705 0.944383 0.12517  -0.0317748717949
 C3 0.114511 0.988926 0.0976  0.619355128205
 C3 0.614511 0.988924 0.09764  0.619355128205
 C1 0.010773 0.976469 0.28050  0.232587628205
 C1 0.510773 0.976467 0.28050  0.232587628205
 C1 0.085535 0.883225 0.33984  0.232587628205
 C1 0.585537 0.883228 0.33984  0.232587628205
 C1 0.278662 0.262745 0.98493  0.232587628205
 C1 0.778667 0.262748 0.98493  0.232587628205
 C1 0.208039 0.248244 0.08633  0.232587628205
 C1 0.708042 0.248247 0.08633  0.232587628205
 C2 0.204302 0.444431 0.12520  -0.0317748717949
 C2 0.704302 0.444432 0.12520  -0.0317748717949
 C3 0.135493 0.488942 0.09768  0.619355128205
 C3 0.635491 0.48894 0.09768  0.619355128205
 C1 0.239285 0.476476 0.28052  0.232587628205
 C1 0.739288 0.476481 0.28052  0.232587628205
 C1 0.164485 0.383262 0.33986  0.232587628205
 C1 0.664492 0.38326 0.33986  0.232587628205
 C1 0.471326 0.737282 0.48494  0.232587628205
 C1 0.971319 0.737284 0.48494  0.232587628205
 C1 0.041943 0.751836 0.58633  0.232587628205
 C1 0.541944 0.751834 0.58632  0.232587628205
 C2 0.0457 0.555642 0.62515  -0.0317748717949
 C2 0.5457 0.555645 0.62515  -0.0317748717949
 C3 0.1145 0.511108 0.59761  0.619355128205
 C3 0.6145 0.51111 0.59761  0.619355128205
 C1 0.01077 0.523581 0.78047  0.232587628205
 C1 0.510767 0.523581 0.78047  0.232587628205
 C1 0.085561 0.616825 0.83983  0.232587628205
 C1 0.585559 0.616825 0.83982  0.232587628205
 C1 0.221338 0.762718 0.51501  0.232587628205
 C1 0.721339 0.762719 0.51501  0.232587628205
 C1 0.291965 0.748221 0.41364  0.232587628205
 C1 0.791966 0.748224 0.41364  0.232587628205
 C2 0.29569 0.944394 0.3747  -0.0317748717949
 C2 0.79569 0.944397 0.37479  -0.0317748717949
 C3 0.364508 0.988923 0.40231  0.619355128205
 C3 0.864507 0.988925 0.40231  0.619355128205
 C1 0.260715 0.97647 0.21948  0.232587628205
 C1 0.760716 0.976475 0.21948  0.232587628205
 C1 0.335508 0.883319 0.16009  0.232587628205
 C1 0.835509 0.883325 0.16009  0.232587628205
 C1 0.028685 0.23739 0.01504  0.232587628205
 C1 0.528685 0.237388 0.01503  0.232587628205
 C1 0.458056 0.251845 0.91361  0.232587628205
 C1 0.958056 0.251847 0.91361  0.232587628205
 C2 0.454292 0.055647 0.87478  -0.0317748717949
 C2 0.954293 0.055649 0.87478  -0.0317748717949
 C3 0.385485 0.0111 0.90231  0.619355128205
 C3 0.885486 0.011099 0.90231  0.619355128205
 C1 0.489228 0.023566 0.71945  0.232587628205
 C1 0.989227 0.023566 0.71946  0.232587628205
 C1 0.414467 0.116811 0.66011  0.232587628205
 C1 0.914472 0.116825 0.66012  0.232587628205
 N1 0.273505 0.649567 0.92117  0.140005128205
 N1 0.773506 0.649569 0.92117  0.140005128205
 N2 0.228213 0.638679 0.98643  -0.362594871795
 N2 0.728217 0.638681 0.98644  -0.362594871795
 N3 0.259159 0.809638 0.9719  -0.427434871795
 N3 0.759164 0.80964 0.97192  -0.427434871795
 N1 0.296042 0.572954 0.78146  0.140005128205
 N1 0.796043 0.572956 0.78147  0.140005128205
 N2 0.344857 0.632588 0.74437  -0.362594871795
 N2 0.844855 0.632596 0.74437  -0.362594871795
 N3 0.28451 0.550094 0.64172  -0.427434871795
 N3 0.784512 0.550097 0.64172  -0.427434871795
 N1 0.4765 0.350432 0.42119  0.140005128205
 N1 0.976499 0.350435 0.42120  0.140005128205
 N2 0.02179 0.36135 0.48648  -0.362594871795
 N2 0.521785 0.361348 0.48647  -0.362594871795
 N3 0.49086 0.190374 0.47192  -0.427434871795
 N3 0.990857 0.190374 0.47193  -0.427434871795
 N1 0.453938 0.427026 0.28151  0.140005128205
 N1 0.953939 0.427029 0.28152  0.140005128205
 N2 0.405125 0.367372 0.24440  -0.362594871795
 N2 0.905127 0.367377 0.24441  -0.362594871795
 N3 0.465426 0.449921 0.14176  -0.427434871795
 N3 0.965425 0.44993 0.14177  -0.427434871795
 N1 0.226506 0.149604 0.57877  0.140005128205
 N1 0.726507 0.149604 0.57877  0.140005128205
 N2 0.271794 0.138721 0.51350  -0.362594871795
 N2 0.771798 0.138722 0.51350  -0.362594871795
 N3 0.240823 0.309657 0.52800  -0.427434871795
 N3 0.740825 0.309658 0.52800  -0.427434871795
 N1 0.203974 0.072986 0.71846  0.140005128205
 N1 0.703975 0.072984 0.71846  0.140005128205
 N2 0.155162 0.132581 0.75559  -0.362594871795
 N2 0.655168 0.132586 0.75559  -0.362594871795
 N3 0.215485 0.050046 0.858  -0.427434871795
 N3 0.715489 0.050047 0.85819  -0.427434871795
 N1 0.023501 0.850401 0.07878  0.140005128205
 N1 0.523501 0.850399 0.07877  0.140005128205
 N2 0.478217 0.861261 0.01349  -0.362594871795
 N2 0.97821 0.861264 0.01349  -0.362594871795
 N3 0.009143 0.690318 0.02804  -0.427434871795
 N3 0.509142 0.690317 0.02804  -0.427434871795
 N1 0.046062 0.92704 0.21847  0.140005128205
 N1 0.546062 0.927041 0.21846  0.140005128205
 N2 0.094857 0.867393 0.25556  -0.362594871795
 N2 0.594857 0.867394 0.25556  -0.362594871795
 N3 0.034565 0.949937 0.3582  -0.427434871795
 N3 0.534566 0.949937 0.35821  -0.427434871795
 N1 0.226497 0.350467 0.07878  0.140005128205
 N1 0.726499 0.350471 0.07878  0.140005128205
 N2 0.271785 0.361356 0.01351  -0.362594871795
 N2 0.771789 0.361359 0.01351  -0.362594871795
 N3 0.240838 0.190397 0.02803  -0.427434871795
 N3 0.740842 0.1904 0.02803  -0.427434871795
 N1 0.203959 0.427081 0.21849  0.140005128205
 N1 0.703963 0.427084 0.21849  0.140005128205
 N2 0.155146 0.367442 0.25558  -0.362594871795
 N2 0.655152 0.36744 0.25558  -0.362594871795
 N3 0.215489 0.449942 0.35823  -0.427434871795
 N3 0.715494 0.449943 0.35823  -0.427434871795
 N1 0.023503 0.649603 0.57876  0.140005128205
 N1 0.523502 0.649602 0.57875  0.140005128205
 N2 0.478218 0.638686 0.51347  -0.362594871795
 N2 0.978212 0.638687 0.51348  -0.362594871795
 N3 0.009143 0.809664 0.52803  -0.427434871795
 N3 0.509142 0.809661 0.5280  -0.427434871795
 N1 0.046063 0.57301 0.71844  0.140005128205
 N1 0.54606 0.57301 0.71844  0.140005128205
 N2 0.094876 0.632661 0.75555  -0.362594871795
 N2 0.594873 0.632662 0.75555  -0.362594871795
 N3 0.034576 0.550111 0.85819  -0.427434871795
 N3 0.534574 0.550111 0.8581  -0.427434871795
 N1 0.27349 0.850428 0.42118  0.140005128205
 N1 0.773491 0.85043 0.42118  0.140005128205
 N2 0.228204 0.861312 0.48645  -0.362594871795
 N2 0.728203 0.861313 0.48645  -0.362594871795
 N3 0.259176 0.690376 0.47195  -0.427434871795
 N3 0.759178 0.690378 0.47195  -0.427434871795
 N1 0.296025 0.927049 0.28149  0.140005128205
 N1 0.796026 0.927053 0.28149  0.140005128205
 N2 0.344837 0.867456 0.24436  -0.362594871795
 N2 0.844838 0.867462 0.24436  -0.362594871795
 N3 0.284514 0.949991 0.14175  -0.427434871795
 N3 0.784515 0.949996 0.1417  -0.427434871795
 N1 0.476498 0.149631 0.92118  0.140005128205
 N1 0.976495 0.149632 0.92119  0.140005128205
 N2 0.021789 0.13877 0.98647  -0.362594871795
 N2 0.521786 0.138769 0.9864  -0.362594871795
 N3 0.490863 0.309713 0.97191  -0.427434871795
 N3 0.990858 0.309716 0.97192  -0.427434871795
 N1 0.453937 0.072991 0.78149  0.140005128205
 N1 0.95394 0.072997 0.78149  0.140005128205
 N2 0.405145 0.132645 0.74439  -0.362594871795
 N2 0.90515 0.132657 0.74440  -0.362594871795
 N3 0.465437 0.050101 0.64174  -0.427434871795
 N3 0.965438 0.050106 0.6417  -0.427434871795
 O1 0.391761 0.555419 0.96657  -0.611694871795
 O1 0.891759 0.555418 0.96657  -0.611694871795
 O2 0.38328 0.435651 0.85617  -0.599154871795
 O2 0.883277 0.435651 0.85617  -0.599154871795
 O1 0.358234 0.444571 0.46662  -0.611694871795
 O1 0.858232 0.44457 0.46662  -0.611694871795
 O2 0.366718 0.564343 0.35626  -0.599154871795
 O2 0.866716 0.564343 0.35627  -0.599154871795
 O1 0.108233 0.055434 0.53337  -0.611694871795
 O1 0.60823 0.055435 0.53337  -0.611694871795
 O2 0.1167 0.935691 0.64374  -0.599154871795
 O2 0.616698 0.935693 0.64374  -0.599154871795
 O1 0.141765 0.944578 0.03336  -0.611694871795
 O1 0.641764 0.944579 0.03336  -0.611694871795
 O2 0.133301 0.064351 0.14375  -0.599154871795
 O2 0.633298 0.064354 0.14374  -0.599154871795
 O1 0.108236 0.444594 0.03339  -0.611694871795
 O1 0.608234 0.444595 0.03339  -0.611694871795
 O2 0.116713 0.564371 0.14378  -0.599154871795
 O2 0.616712 0.564371 0.14378  -0.599154871795
 O1 0.141763 0.555444 0.53334  -0.611694871795
 O1 0.641761 0.555442 0.53333  -0.611694871795
 O2 0.133275 0.43568 0.64369  -0.599154871795
 O2 0.633272 0.435677 0.64369  -0.599154871795
 O1 0.391764 0.944581 0.46658  -0.611694871795
 O1 0.891761 0.944583 0.4665  -0.611694871795
 O2 0.383299 0.064333 0.35622  -0.599154871795
 O2 0.883297 0.064337 0.35622  -0.599154871795
 O1 0.358231 0.055436 0.96660  -0.611694871795
 O1 0.85823 0.055437 0.96660  -0.611694871795
 O2 0.366698 0.935673 0.8562  -0.599154871795
 O2 0.866697 0.935676 0.85620  -0.599154871795
