#======================================================================

# CRYSTAL DATA

#----------------------------------------------------------------------

data_VESTA_phase_1


_pd_phase_name                         MOF
_cell_length_a                         20.93500
_cell_length_b                         20.94600
_cell_length_c                         16.31800
_cell_angle_alpha                      80.94900
_cell_angle_beta                       81.04000
_cell_angle_gamma                      49.40700
_symmetry_space_group_name_H-M         "P 1"
_symmetry_Int_Tables_number            1

loop_
_symmetry_equiv_pos_as_xyz
   "x, y, z"

loop_
   _atom_site_label
   _atom_site_fract_x
   _atom_site_fract_y
   _atom_site_fract_z
 _atom_site_charge
 Cd1 0.356859 0.396369 0.21026  1.05525705128
 Cd1 0.356861 0.896358 0.21026  1.05525705128
 Cd1 0.856854 0.396368 0.21026  1.05525705128
 Cd1 0.856856 0.896357 0.21026  1.05525705128
 Cd1 0.103995 0.143666 0.28961  1.05525705128
 Cd1 0.103997 0.643657 0.28961  1.05525705128
 Cd1 0.603997 0.143664 0.28961  1.05525705128
 Cd1 0.603999 0.643654 0.28961  1.05525705128
 Cd1 0.143101 0.103642 0.78978  1.05525705128
 Cd1 0.143104 0.603631 0.78978  1.05525705128
 Cd1 0.643096 0.10364 0.78978  1.05525705128
 Cd1 0.643098 0.60363 0.78978  1.05525705128
 Cd1 0.395964 0.356347 0.71042  1.05525705128
 Cd1 0.395967 0.856337 0.71042  1.05525705128
 Cd1 0.895966 0.356343 0.71042  1.05525705128
 Cd1 0.895969 0.856334 0.71042  1.05525705128
 Cd2 0.008129 0.492283 0.25003  1.04944705128
 Cd2 0.00813 0.992273 0.25003  1.04944705128
 Cd2 0.508127 0.492283 0.25004  1.04944705128
 Cd2 0.508128 0.992274 0.25003  1.04944705128
 Cd2 0.491833 0.007723 0.75000  1.04944705128
 Cd2 0.491835 0.507713 0.7  1.04944705128
 Cd2 0.991831 0.007724 0.75000  1.04944705128
 Cd2 0.991833 0.507714 0.75000  1.04944705128
 H1 0.347718 0.369285 0.9963  0.104097051282
 H1 0.347719 0.869276 0.9963  0.104097051282
 H1 0.847715 0.369281 0.99632  0.104097051282
 H1 0.847717 0.869272 0.9963  0.104097051282
 H1 0.197267 0.414177 0.28021  0.104097051282
 H1 0.197268 0.914168 0.28021  0.104097051282
 H1 0.697265 0.414174 0.28021  0.104097051282
 H1 0.697266 0.914164 0.28021  0.104097051282
 H1 0.041184 0.004623 0.02655  0.104097051282
 H1 0.041185 0.504612 0.02655  0.104097051282
 H1 0.54118 0.004623 0.02655  0.104097051282
 H1 0.541181 0.504612 0.02655  0.104097051282
 H1 0.130253 0.152479 0.50375  0.104097051282
 H1 0.130256 0.652469 0.50375  0.104097051282
 H1 0.630246 0.15248 0.50375  0.104097051282
 H1 0.630248 0.65247 0.50375  0.104097051282
 H1 0.08727 0.302918 0.21971  0.104097051282
 H1 0.087273 0.802908 0.21971  0.104097051282
 H1 0.587264 0.30292 0.21971  0.104097051282
 H1 0.587267 0.80291 0.21971  0.104097051282
 H1 0.495384 0.458789 0.473  0.104097051282
 H1 0.495387 0.958779 0.473  0.104097051282
 H1 0.995386 0.458791 0.47339  0.104097051282
 H1 0.995388 0.958781 0.47339  0.104097051282
 H1 0.152244 0.130727 0.00372  0.104097051282
 H1 0.152246 0.630718 0.00372  0.104097051282
 H1 0.65224 0.130724 0.00372  0.104097051282
 H1 0.652243 0.630714 0.00372  0.104097051282
 H1 0.302696 0.085827 0.71982  0.104097051282
 H1 0.302698 0.585818 0.71982  0.104097051282
 H1 0.802694 0.085823 0.71982  0.104097051282
 H1 0.802695 0.585813 0.71982  0.104097051282
 H1 0.458781 0.495383 0.97348  0.104097051282
 H1 0.458781 0.995372 0.97348  0.104097051282
 H1 0.958777 0.495382 0.97348  0.104097051282
 H1 0.958777 0.995372 0.97348  0.104097051282
 H1 0.369712 0.347527 0.49628  0.104097051282
 H1 0.369716 0.847517 0.49628  0.104097051282
 H1 0.869706 0.347528 0.49628  0.104097051282
 H1 0.869709 0.847518 0.49628  0.104097051282
 H1 0.412699 0.197086 0.78032  0.104097051282
 H1 0.412702 0.697076 0.78032  0.104097051282
 H1 0.912693 0.197087 0.78032  0.104097051282
 H1 0.912696 0.697077 0.78032  0.104097051282
 H1 0.004576 0.041215 0.52664  0.104097051282
 H1 0.00458 0.541205 0.52664  0.104097051282
 H1 0.504579 0.041217 0.52664  0.104097051282
 H1 0.504582 0.541207 0.52664  0.104097051282
 C1 0.287046 0.407287 0.85153  0.663142051282
 C1 0.287048 0.907277 0.85153  0.663142051282
 C1 0.787042 0.407286 0.85153  0.663142051282
 C1 0.787043 0.907276 0.85153  0.663142051282
 C2 0.236995 0.425358 0.93309  -0.0923629487179
 C2 0.236997 0.925348 0.93309  -0.0923629487179
 C2 0.736992 0.425355 0.93309  -0.0923629487179
 C2 0.736994 0.925346 0.93309  -0.0923629487179
 C3 0.281047 0.399482 0.  -0.162552948718
 C3 0.281049 0.899472 0.  -0.162552948718
 C3 0.781044 0.399478 0.  -0.162552948718
 C3 0.781046 0.899468 0.  -0.162552948718
 C4 0.238117 0.413001 0.08180  0.174612051282
 C4 0.238119 0.912992 0.08180  0.174612051282
 C4 0.738114 0.412997 0.08180  0.174612051282
 C4 0.738116 0.912987 0.08180  0.174612051282
 C5 0.19671 0.41925 0.21299  0.360357051282
 C5 0.196712 0.91924 0.21299  0.360357051282
 C5 0.696707 0.419246 0.21  0.360357051282
 C5 0.696709 0.919236 0.21299  0.360357051282
 C4 0.152045 0.449061 0.09020  0.174612051282
 C4 0.152047 0.949051 0.09020  0.174612051282
 C4 0.652042 0.449058 0.09020  0.174612051282
 C4 0.652044 0.949048 0.09020  0.174612051282
 C3 0.107597 0.475343 0.01989  -0.162552948718
 C3 0.107599 0.975333 0.01989  -0.162552948718
 C3 0.607593 0.475342 0.01989  -0.162552948718
 C3 0.607595 0.975332 0.01989  -0.162552948718
 C2 0.149741 0.464515 0.94126  -0.0923629487179
 C2 0.149743 0.964505 0.94126  -0.0923629487179
 C2 0.649738 0.464514 0.94126  -0.0923629487179
 C2 0.64974 0.964503 0.94126  -0.0923629487179
 C1 0.097182 0.49438 0.86869  0.663142051282
 C1 0.097184 0.994369 0.86869  0.663142051282
 C1 0.59718 0.494376 0.86869  0.663142051282
 C1 0.597182 0.994365 0.86869  0.663142051282
 C1 0.091985 0.212839 0.6485  0.663142051282
 C1 0.091988 0.71283 0.6485  0.663142051282
 C1 0.591981 0.212838 0.6485  0.663142051282
 C1 0.591984 0.712829 0.64855  0.663142051282
 C2 0.074038 0.263025 0.56695  -0.0923629487179
 C2 0.074041 0.763015 0.56695  -0.0923629487179
 C2 0.574035 0.263025 0.56695  -0.0923629487179
 C2 0.574038 0.763015 0.56695  -0.0923629487179
 C3 0.100165 0.219103 0.49607  -0.162552948718
 C3 0.100168 0.719093 0.49607  -0.162552948718
 C3 0.600161 0.219103 0.49607  -0.162552948718
 C3 0.600163 0.719093 0.49607  -0.162552948718
 C4 0.087097 0.26207 0.41818  0.174612051282
 C4 0.087099 0.762061 0.41818  0.174612051282
 C4 0.587093 0.26207 0.4181  0.174612051282
 C4 0.587096 0.762061 0.41818  0.174612051282
 C5 0.081728 0.303483 0.2869  0.360357051282
 C5 0.081731 0.803473 0.2869  0.360357051282
 C5 0.581723 0.303484 0.28696  0.360357051282
 C5 0.581726 0.803474 0.28696  0.360357051282
 C4 0.051166 0.348071 0.40977  0.174612051282
 C4 0.051168 0.848061 0.40977  0.174612051282
 C4 0.551163 0.348071 0.40977  0.174612051282
 C4 0.551166 0.848061 0.40977  0.174612051282
 C3 0.024548 0.392428 0.48007  -0.162552948718
 C3 0.02455 0.892418 0.48007  -0.162552948718
 C3 0.524547 0.392427 0.4800  -0.162552948718
 C3 0.52455 0.892417 0.4800  -0.162552948718
 C2 0.034985 0.35023 0.55874  -0.0923629487179
 C2 0.034988 0.85022 0.55874  -0.0923629487179
 C2 0.534986 0.350228 0.55874  -0.0923629487179
 C2 0.534988 0.850219 0.55874  -0.0923629487179
 C1 0.004982 0.402645 0.63128  0.663142051282
 C1 0.004985 0.902635 0.63128  0.663142051282
 C1 0.504985 0.402645 0.63128  0.663142051282
 C1 0.504987 0.902635 0.63128  0.663142051282
 C1 0.212918 0.092723 0.14850  0.663142051282
 C1 0.21292 0.592714 0.14850  0.663142051282
 C1 0.712913 0.092723 0.14850  0.663142051282
 C1 0.712916 0.592713 0.14850  0.663142051282
 C2 0.262967 0.074652 0.06694  -0.0923629487179
 C2 0.262969 0.574643 0.06694  -0.0923629487179
 C2 0.762963 0.074651 0.06694  -0.0923629487179
 C2 0.762966 0.574641 0.06694  -0.0923629487179
 C3 0.218914 0.10053 0.99606  -0.162552948718
 C3 0.218916 0.60052 0.99606  -0.162552948718
 C3 0.718911 0.100526 0.99606  -0.162552948718
 C3 0.718914 0.600516 0.99606  -0.162552948718
 C4 0.261845 0.087008 0.91823  0.174612051282
 C4 0.261847 0.586998 0.91823  0.174612051282
 C4 0.761842 0.087005 0.91823  0.174612051282
 C4 0.761844 0.586995 0.91823  0.174612051282
 C5 0.303252 0.080756 0.78704  0.360357051282
 C5 0.303254 0.580747 0.78704  0.360357051282
 C5 0.80325 0.080752 0.78704  0.360357051282
 C5 0.803252 0.580742 0.78704  0.360357051282
 C4 0.347917 0.050947 0.90983  0.174612051282
 C4 0.347919 0.550937 0.90983  0.174612051282
 C4 0.847914 0.050944 0.90983  0.174612051282
 C4 0.847916 0.550934 0.90983  0.174612051282
 C3 0.392366 0.024664 0.98014  -0.162552948718
 C3 0.392368 0.524654 0.98014  -0.162552948718
 C3 0.892363 0.024663 0.98014  -0.162552948718
 C3 0.892365 0.524652 0.98014  -0.162552948718
 C2 0.350221 0.035494 0.05877  -0.0923629487179
 C2 0.350223 0.535484 0.05877  -0.0923629487179
 C2 0.850218 0.035492 0.05877  -0.0923629487179
 C2 0.850221 0.535481 0.05877  -0.0923629487179
 C1 0.402781 0.005629 0.13134  0.663142051282
 C1 0.402782 0.505619 0.13134  0.663142051282
 C1 0.902779 0.005626 0.13134  0.663142051282
 C1 0.902781 0.505615 0.13134  0.663142051282
 C1 0.407973 0.287171 0.35149  0.663142051282
 C1 0.407976 0.787161 0.35149  0.663142051282
 C1 0.90797 0.28717 0.35149  0.663142051282
 C1 0.907972 0.78716 0.35149  0.663142051282
 C2 0.425924 0.236983 0.43308  -0.0923629487179
 C2 0.425927 0.736973 0.43308  -0.0923629487179
 C2 0.925922 0.236982 0.43308  -0.0923629487179
 C2 0.925924 0.736972 0.43308  -0.0923629487179
 C3 0.3998 0.280904 0.50397  -0.162552948718
 C3 0.399803 0.780894 0.50397  -0.162552948718
 C3 0.899796 0.280904 0.50397  -0.162552948718
 C3 0.899799 0.780894 0.50397  -0.162552948718
 C4 0.412869 0.237936 0.58185  0.174612051282
 C4 0.412873 0.737926 0.58185  0.174612051282
 C4 0.912866 0.237936 0.58185  0.174612051282
 C4 0.912869 0.737925 0.58185  0.174612051282
 C5 0.418239 0.196523 0.71308  0.360357051282
 C5 0.418242 0.696512 0.71308  0.360357051282
 C5 0.918235 0.196523 0.71308  0.360357051282
 C5 0.918238 0.696513 0.71308  0.360357051282
 C4 0.448799 0.151936 0.5902  0.174612051282
 C4 0.448802 0.651926 0.59026  0.174612051282
 C4 0.948796 0.151935 0.59027  0.174612051282
 C4 0.948799 0.651925 0.59027  0.174612051282
 C3 0.475415 0.10758 0.51996  -0.162552948718
 C3 0.475418 0.60757 0.51996  -0.162552948718
 C3 0.975415 0.107579 0.51996  -0.162552948718
 C3 0.975418 0.607568 0.51996  -0.162552948718
 C2 0.464977 0.149778 0.44129  -0.0923629487179
 C2 0.46498 0.649768 0.44129  -0.0923629487179
 C2 0.964977 0.149776 0.44129  -0.0923629487179
 C2 0.96498 0.649766 0.44129  -0.0923629487179
 C1 0.494978 0.097364 0.36875  0.663142051282
 C1 0.49498 0.597354 0.36875  0.663142051282
 C1 0.99498 0.097363 0.36875  0.663142051282
 C1 0.994983 0.597353 0.36875  0.663142051282
 N1 0.2648 0.395116 0.16125  -0.520772948718
 N1 0.264802 0.895106 0.16125  -0.520772948718
 N1 0.764798 0.395111 0.16125  -0.520772948718
 N1 0.7648 0.895101 0.16125  -0.520772948718
 N1 0.127561 0.451669 0.17454  -0.520772948718
 N1 0.127562 0.95166 0.17454  -0.520772948718
 N1 0.627558 0.451667 0.17454  -0.520772948718
 N1 0.62756 0.951657 0.17454  -0.520772948718
 N1 0.105457 0.235437 0.3387  -0.520772948718
 N1 0.10546 0.735427 0.3387  -0.520772948718
 N1 0.605452 0.235438 0.3387  -0.520772948718
 N1 0.605455 0.735428 0.3387  -0.520772948718
 N1 0.049136 0.372557 0.3254  -0.520772948718
 N1 0.049139 0.872547 0.3254  -0.520772948718
 N1 0.549133 0.372557 0.32542  -0.520772948718
 N1 0.549136 0.872547 0.32542  -0.520772948718
 N1 0.235161 0.104893 0.83878  -0.520772948718
 N1 0.235164 0.604884 0.83878  -0.520772948718
 N1 0.735159 0.104889 0.83878  -0.520772948718
 N1 0.735161 0.604879 0.83878  -0.520772948718
 N1 0.372402 0.048335 0.82549  -0.520772948718
 N1 0.372404 0.548326 0.82549  -0.520772948718
 N1 0.8724 0.048332 0.82549  -0.520772948718
 N1 0.872402 0.548323 0.82549  -0.520772948718
 N1 0.394512 0.264568 0.66132  -0.520772948718
 N1 0.394515 0.764558 0.66132  -0.520772948718
 N1 0.894508 0.264569 0.66132  -0.520772948718
 N1 0.894511 0.764559 0.66132  -0.520772948718
 N1 0.450828 0.12745 0.67462  -0.520772948718
 N1 0.450831 0.62744 0.6746  -0.520772948718
 N1 0.950824 0.12745 0.67462  -0.520772948718
 N1 0.950828 0.62744 0.67462  -0.520772948718
 O1 0.366071 0.345391 0.8499  -0.594189823718
 O1 0.366073 0.845383 0.84990  -0.594189823718
 O1 0.866068 0.345392 0.84990  -0.594189823718
 O1 0.86607 0.845383 0.84990  -0.594189823718
 O1 0.251955 0.453266 0.78434  -0.594189823718
 O1 0.251956 0.953256 0.78434  -0.594189823718
 O1 0.751949 0.453266 0.78434  -0.594189823718
 O1 0.751951 0.953255 0.78434  -0.594189823718
 O1 0.065009 0.066501 0.8296  -0.594189823718
 O1 0.065012 0.566491 0.8296  -0.594189823718
 O1 0.565004 0.066499 0.82961  -0.594189823718
 O1 0.565006 0.566488 0.82961  -0.594189823718
 O1 0.080326 0.449309 0.8536  -0.594189823718
 O1 0.080328 0.949298 0.85362  -0.594189823718
 O1 0.58033 0.449302 0.85361  -0.594189823718
 O1 0.580332 0.94929 0.85361  -0.594189823718
 O1 0.153488 0.133727 0.65024  -0.594189823718
 O1 0.153491 0.633717 0.65024  -0.594189823718
 O1 0.653478 0.133724 0.65024  -0.594189823718
 O1 0.65348 0.633715 0.65024  -0.594189823718
 O1 0.046388 0.247885 0.71573  -0.594189823718
 O1 0.04639 0.747875 0.71573  -0.594189823718
 O1 0.546389 0.247886 0.71573  -0.594189823718
 O1 0.546391 0.747876 0.71573  -0.594189823718
 O1 0.432996 0.43449 0.67031  -0.594189823718
 O1 0.432998 0.93448 0.67031  -0.594189823718
 O1 0.932997 0.434487 0.67031  -0.594189823718
 O1 0.932999 0.934478 0.67031  -0.594189823718
 O1 0.049915 0.419703 0.64637  -0.594189823718
 O1 0.049918 0.919692 0.64637  -0.594189823718
 O1 0.54992 0.419701 0.64637  -0.594189823718
 O1 0.549922 0.91969 0.64637  -0.594189823718
 O1 0.133892 0.154619 0.15013  -0.594189823718
 O1 0.133894 0.65461 0.15013  -0.594189823718
 O1 0.633888 0.154619 0.15013  -0.594189823718
 O1 0.633891 0.65461 0.15013  -0.594189823718
 O1 0.248011 0.046743 0.21569  -0.594189823718
 O1 0.248012 0.546733 0.21569  -0.594189823718
 O1 0.748006 0.046743 0.21569  -0.594189823718
 O1 0.748007 0.546732 0.21569  -0.594189823718
 O1 0.434953 0.433508 0.17042  -0.594189823718
 O1 0.434955 0.933497 0.17042  -0.594189823718
 O1 0.934947 0.433506 0.17042  -0.594189823718
 O1 0.934949 0.933495 0.17042  -0.594189823718
 O1 0.419636 0.050701 0.14641  -0.594189823718
 O1 0.419639 0.550689 0.14641  -0.594189823718
 O1 0.91964 0.050693 0.14641  -0.594189823718
 O1 0.919642 0.550682 0.14641  -0.594189823718
 O1 0.346467 0.366283 0.34979  -0.594189823718
 O1 0.34647 0.866273 0.349  -0.594189823718
 O1 0.846457 0.36628 0.34979  -0.594189823718
 O1 0.846459 0.86627 0.34979  -0.594189823718
 O1 0.453571 0.252131 0.28430  -0.594189823718
 O1 0.453573 0.752121 0.28430  -0.594189823718
 O1 0.953572 0.252131 0.28430  -0.594189823718
 O1 0.953575 0.752122 0.28430  -0.594189823718
 O1 0.066964 0.065524 0.32972  -0.594189823718
 O1 0.066966 0.565514 0.3297  -0.594189823718
 O1 0.566965 0.065522 0.3297  -0.594189823718
 O1 0.566967 0.565512 0.3297  -0.594189823718
 O1 0.450043 0.080309 0.35366  -0.594189823718
 O1 0.450046 0.580298 0.35366  -0.594189823718
 O1 0.950047 0.080306 0.35366  -0.594189823718
 O1 0.950051 0.580295 0.35366  -0.594189823718
