#======================================================================

# CRYSTAL DATA

#----------------------------------------------------------------------

data_VESTA_phase_1


_pd_phase_name                         MOF
_cell_length_a                         19.51800
_cell_length_b                         19.55100
_cell_length_c                         19.54200
_cell_angle_alpha                      72.05100
_cell_angle_beta                       71.97800
_cell_angle_gamma                      71.94300
_symmetry_space_group_name_H-M         "P 1"
_symmetry_Int_Tables_number            1

loop_
_symmetry_equiv_pos_as_xyz
   "x, y, z"

loop_
   _atom_site_label
   _atom_site_fract_x
   _atom_site_fract_y
   _atom_site_fract_z
 _atom_site_charge
 Zn1 0.548219 0.317498 0.98144  0.930410350877
 Zn1 0.643146 0.214756 0.87635  0.930410350877
 Zn1 0.981306 0.549248 0.31692  0.930410350877
 Zn1 0.876894 0.643161 0.213  0.930410350877
 Zn1 0.316455 0.97755 0.55034  0.930410350877
 Zn1 0.211724 0.875049 0.64435  0.930410350877
 Zn1 0.81602 0.048658 0.48102  0.930410350877
 Zn1 0.712238 0.142429 0.37717  0.930410350877
 Zn1 0.049644 0.47744 0.81788  0.930410350877
 Zn1 0.14485 0.374432 0.71289  0.930410350877
 Zn1 0.481879 0.817042 0.04940  0.930410350877
 Zn1 0.376572 0.714832 0.14359  0.930410350877
 H1 0.480399 0.548726 0.02462  0.111069100877
 H1 0.56373 0.729414 0.86433  0.111069100877
 H1 0.621568 0.515326 0.81426  0.111069100877
 H1 0.560918 0.758427 0.73437  0.111069100877
 H1 0.66818 0.212502 0.14621  0.111069100877
 H1 0.879197 0.071158 0.17776  0.111069100877
 H1 0.828515 0.131452 0.96371  0.111069100877
 H1 0.958909 0.132566 0.93427  0.111069100877
 H1 0.024917 0.479289 0.54798  0.111069100877
 H1 0.864506 0.560397 0.73042  0.111069100877
 H1 0.813966 0.620696 0.5162  0.111069100877
 H1 0.734162 0.559284 0.75984  0.111069100877
 H1 0.145614 0.669982 0.21308  0.111069100877
 H1 0.176809 0.880468 0.07166  0.111069100877
 H1 0.962996 0.828952 0.13103  0.111069100877
 H1 0.933182 0.959734 0.13316  0.111069100877
 H1 0.547487 0.021881 0.48095  0.111069100877
 H1 0.730025 0.862824 0.56304  0.111069100877
 H1 0.516154 0.811438 0.62239  0.111069100877
 H1 0.759831 0.732094 0.56088  0.111069100877
 H1 0.212716 0.143284 0.66957  0.111069100877
 H1 0.071364 0.176543 0.87992  0.111069100877
 H1 0.1295 0.962464 0.82976  0.111069100877
 H1 0.132133 0.933413 0.95973  0.111069100877
 H1 0.047223 0.979344 0.5240  0.111069100877
 H1 0.229688 0.060965 0.36461  0.111069100877
 H1 0.015448 0.12088 0.31364  0.111069100877
 H1 0.259436 0.059434 0.23430  0.111069100877
 H1 0.712178 0.16915 0.64568  0.111069100877
 H1 0.571795 0.380465 0.67688  0.111069100877
 H1 0.630145 0.328467 0.46357  0.111069100877
 H1 0.632877 0.459372 0.43383  0.111069100877
 H1 0.980664 0.522807 0.04858  0.111069100877
 H1 0.062787 0.363369 0.2305  0.111069100877
 H1 0.121126 0.311577 0.01718  0.111069100877
 H1 0.059999 0.23253 0.26024  0.111069100877
 H1 0.168445 0.643681 0.71360  0.111069100877
 H1 0.378692 0.67676 0.5716  0.111069100877
 H1 0.32933 0.462347 0.6309  0.111069100877
 H1 0.459347 0.433511 0.63257  0.111069100877
 H1 0.52459 0.048455 0.98056  0.111069100877
 H1 0.363511 0.229601 0.06338  0.111069100877
 H1 0.314335 0.015136 0.12228  0.111069100877
 H1 0.233563 0.258383 0.06153  0.111069100877
 H1 0.645761 0.712677 0.17018  0.111069100877
 H1 0.677416 0.570958 0.38051  0.111069100877
 H1 0.463192 0.631121 0.32944  0.111069100877
 H1 0.433448 0.632469 0.45981  0.111069100877
 C1 0.547696 0.445597 0.94349  0.678726184211
 C2 0.550947 0.524538 0.92134  -0.0476521491228
 C3 0.512853 0.570552 0.9703  -0.0741342324561
 C2 0.517717 0.644438 0.94915  -0.0476521491228
 C3 0.559745 0.67209 0.8790  -0.0741342324561
 C2 0.597858 0.626466 0.82939  -0.0476521491228
 C3 0.59318 0.552349 0.85150  -0.0741342324561
 C1 0.48044 0.692818 0.0024  0.678726184211
 C2 0.642566 0.655648 0.75545  -0.0476521491228
 C3 0.615393 0.72547 0.71274  -0.0741342324561
 C1 0.690052 0.214371 0.00166  0.678726184211
 C2 0.743677 0.176443 0.04960  -0.0476521491228
 C3 0.722636 0.180393 0.12382  -0.0741342324561
 C2 0.77184 0.141814 0.16946  -0.0476521491228
 C3 0.841782 0.099927 0.14098  -0.0741342324561
 C2 0.863742 0.095983 0.06658  -0.0476521491228
 C3 0.813885 0.134727 0.0212  -0.0741342324561
 C2 0.937659 0.051175 0.03696  -0.0476521491228
 C3 0.980424 0.078107 0.9670  -0.0741342324561
 C1 0.749832 0.144239 0.24869  0.678726184211
 C1 0.94338 0.547624 0.44540  0.678726184211
 C2 0.921301 0.550022 0.52464  -0.0476521491228
 C3 0.970456 0.511414 0.57033  -0.0741342324561
 C2 0.949378 0.515397 0.64455  -0.0476521491228
 C3 0.879153 0.557115 0.67283  -0.0741342324561
 C2 0.829325 0.595856 0.62750  -0.0476521491228
 C3 0.851344 0.591914 0.55309  -0.0741342324561
 C1 0.002961 0.477509 0.69254  0.678726184211
 C2 0.755389 0.64066 0.65710  -0.0476521491228
 C3 0.712638 0.613729 0.72704  -0.0741342324561
 C1 0.00125 0.690987 0.21397  0.678726184211
 C2 0.048981 0.744759 0.17647  -0.0476521491228
 C3 0.123181 0.724137 0.18077  -0.0741342324561
 C2 0.168706 0.773412 0.14240  -0.0476521491228
 C3 0.140132 0.842993 0.10033  -0.0741342324561
 C2 0.065702 0.86458 0.09616  -0.0476521491228
 C3 0.020544 0.814633 0.13461  -0.0741342324561
 C2 0.035945 0.938288 0.05147  -0.0476521491228
 C3 0.965997 0.981139 0.07865  -0.0741342324561
 C1 0.247967 0.751757 0.14507  0.678726184211
 C1 0.445048 0.940272 0.54898  0.678726184211
 C2 0.524322 0.918489 0.55165  -0.0476521491228
 C3 0.569893 0.967724 0.51326  -0.0741342324561
 C2 0.64409 0.947051 0.51757  -0.0476521491228
 C3 0.672482 0.877168 0.5594  -0.0741342324561
 C2 0.627298 0.827246 0.59788  -0.0476521491228
 C3 0.552861 0.848884 0.59371  -0.0741342324561
 C1 0.691889 0.000759 0.48014  0.678726184211
 C2 0.657064 0.753538 0.64257  -0.0476521491228
 C3 0.727022 0.71069 0.61539  -0.0741342324561
 C1 0.212802 0.999228 0.69162  0.678726184211
 C2 0.175461 0.047506 0.74498  -0.0476521491228
 C3 0.180248 0.121415 0.72388  -0.0741342324561
 C2 0.142084 0.167395 0.77286  -0.0476521491228
 C3 0.099821 0.139539 0.84266  -0.0741342324561
 C2 0.095223 0.065399 0.86473  -0.0476521491228
 C3 0.133426 0.019798 0.81506  -0.0741342324561
 C2 0.050495 0.036187 0.93865  -0.0476521491228
 C3 0.077648 0.966362 0.98135  -0.0741342324561
 C1 0.145274 0.246349 0.75077  0.678726184211
 C1 0.944547 0.047549 0.44277  0.678726184211
 C2 0.023847 0.050098 0.42067  -0.0476521491228
 C3 0.06957 0.011577 0.46979  -0.0741342324561
 C2 0.143814 0.015671 0.44897  -0.0476521491228
 C3 0.172099 0.057523 0.37906  -0.0741342324561
 C2 0.126744 0.096161 0.32925  -0.0476521491228
 C3 0.052272 0.092122 0.35101  -0.0741342324561
 C1 0.19169 0.977932 0.50264  0.678726184211
 C2 0.156411 0.14092 0.25556  -0.0476521491228
 C3 0.226524 0.113891 0.21286  -0.0741342324561
 C1 0.712772 0.190171 0.50164  0.678726184211
 C2 0.675553 0.244097 0.54932  -0.0476521491228
 C3 0.680051 0.223489 0.62333  -0.0741342324561
 C2 0.642043 0.272987 0.668  -0.0476521491228
 C3 0.600187 0.34279 0.64029  -0.0741342324561
 C2 0.595811 0.364331 0.56606  -0.0476521491228
 C3 0.6339 0.314174 0.52097  -0.0741342324561
 C2 0.551121 0.438148 0.5364  -0.0476521491228
 C3 0.578287 0.480885 0.46667  -0.0741342324561
 C1 0.644822 0.251394 0.74790  0.678726184211
 C1 0.048014 0.44062 0.94631  0.678726184211
 C2 0.050816 0.419004 0.02538  -0.0476521491228
 C3 0.012805 0.468461 0.07089  -0.0741342324561
 C2 0.017373 0.447817 0.14488  -0.0476521491228
 C3 0.059007 0.377706 0.1731  -0.0741342324561
 C2 0.097094 0.327592 0.12805  -0.0476521491228
 C3 0.092712 0.349198 0.05382  -0.0741342324561
 C1 0.980238 0.501683 0.19265  0.678726184211
 C2 0.14177 0.253751 0.15762  -0.0476521491228
 C3 0.114589 0.211016 0.22740  -0.0741342324561
 C1 0.19114 0.499177 0.71444  0.678726184211
 C2 0.244254 0.54762 0.67667  -0.0476521491228
 C3 0.222854 0.621694 0.68113  -0.0741342324561
 C2 0.271669 0.667689 0.64258  -0.0476521491228
 C3 0.34159 0.639706 0.60033  -0.0741342324561
 C2 0.363934 0.565451 0.59597  -0.0476521491228
 C3 0.314428 0.519823 0.6345  -0.0741342324561
 C2 0.437972 0.536185 0.5511  -0.0476521491228
 C3 0.480876 0.466369 0.57817  -0.0741342324561
 C1 0.24946 0.746776 0.64543  0.678726184211
 C1 0.443708 0.945282 0.04847  0.678726184211
 C2 0.421369 0.024332 0.05144  -0.0476521491228
 C3 0.470141 0.070388 0.01299  -0.0741342324561
 C2 0.44868 0.144424 0.0175  -0.0476521491228
 C3 0.378461 0.172148 0.05966  -0.0741342324561
 C2 0.328988 0.126467 0.09814  -0.0476521491228
 C3 0.351403 0.052233 0.09368  -0.0741342324561
 C1 0.501748 0.192916 0.97994  0.678726184211
 C2 0.254916 0.155696 0.1429  -0.0476521491228
 C3 0.212021 0.225522 0.11591  -0.0741342324561
 C1 0.501323 0.714224 0.19141  0.678726184211
 C2 0.549127 0.676391 0.24514  -0.0476521491228
 C3 0.623391 0.680408 0.22437  -0.0741342324561
 C2 0.669074 0.641828 0.27351  -0.0476521491228
 C3 0.640614 0.599764 0.34312  -0.0741342324561
 C2 0.566131 0.595776 0.36484  -0.0476521491228
 C3 0.520799 0.634502 0.31502  -0.0741342324561
 C2 0.536453 0.55098 0.43851  -0.0476521491228
 C3 0.466354 0.578002 0.48124  -0.0741342324561
 C1 0.748379 0.644322 0.25149  0.678726184211
 O1 0.584191 0.403125 0.89896  -0.578979649123
 O1 0.509367 0.419136 0.00735  -0.578979649123
 O1 0.442761 0.664848 0.06526  -0.578979649123
 O1 0.489505 0.75909 0.98160  -0.578979649123
 O1 0.685706 0.181944 0.27583  -0.578979649123
 O1 0.794709 0.107573 0.29074  -0.578979649123
 O1 0.710765 0.206671 0.93486  -0.578979649123
 O1 0.626957 0.251179 0.03063  -0.578979649123
 O1 0.898664 0.584456 0.40323  -0.578979649123
 O1 0.007471 0.509758 0.41836  -0.578979649123
 O1 0.066086 0.440702 0.66365  -0.578979649123
 O1 0.982182 0.485271 0.75935  -0.578979649123
 O1 0.275089 0.688136 0.18326  -0.578979649123
 O1 0.290049 0.796523 0.10823  -0.578979649123
 O1 0.934582 0.711283 0.20567  -0.578979649123
 O1 0.030148 0.628254 0.25113  -0.578979649123
 O1 0.402921 0.895504 0.58557  -0.578979649123
 O1 0.417977 0.004051 0.51101  -0.578979649123
 O1 0.663228 0.063386 0.44265  -0.578979649123
 O1 0.758408 0.980503 0.48886  -0.578979649123
 O1 0.183715 0.27283 0.68695  -0.578979649123
 O1 0.108676 0.288805 0.79528  -0.578979649123
 O1 0.203953 0.932891 0.71234  -0.578979649123
 O1 0.250338 0.027373 0.62876  -0.578979649123
 O1 0.902099 0.084241 0.39831  -0.578979649123
 O1 0.917797 0.009483 0.50666  -0.578979649123
 O1 0.16273 0.940988 0.56545  -0.578979649123
 O1 0.258497 0.985812 0.48223  -0.578979649123
 O1 0.682642 0.18753 0.77506  -0.578979649123
 O1 0.608351 0.296494 0.78982  -0.578979649123
 O1 0.704121 0.210373 0.43521  -0.578979649123
 O1 0.750061 0.127406 0.53036  -0.578979649123
 O1 0.084768 0.395702 0.90427  -0.578979649123
 O1 0.009896 0.504364 0.91927  -0.578979649123
 O1 0.943112 0.56458 0.16399  -0.578979649123
 O1 0.988864 0.481311 0.25909  -0.578979649123
 O1 0.185463 0.773631 0.6835  -0.578979649123
 O1 0.294123 0.788994 0.60872  -0.578979649123
 O1 0.212179 0.432718 0.70570  -0.578979649123
 O1 0.128215 0.527275 0.75216  -0.578979649123
 O1 0.399018 0.903026 0.08478  -0.578979649123
 O1 0.507917 0.918474 0.01065  -0.578979649123
 O1 0.564708 0.164882 0.94222  -0.578979649123
 O1 0.480679 0.259329 0.98879  -0.578979649123
 O1 0.775192 0.682439 0.18765  -0.578979649123
 O1 0.790768 0.607546 0.29599  -0.578979649123
 O1 0.434441 0.706576 0.21179  -0.578979649123
 O1 0.530431 0.751024 0.12858  -0.578979649123
