#======================================================================

# CRYSTAL DATA

#----------------------------------------------------------------------

data_VESTA_phase_1


_pd_phase_name                         MOF
_cell_length_a                         23.04700
_cell_length_b                         15.56200
_cell_length_c                         16.21900
_cell_angle_alpha                      89.97800
_cell_angle_beta                       89.97400
_cell_angle_gamma                      90.07400
_symmetry_space_group_name_H-M         "P 1"
_symmetry_Int_Tables_number            1

loop_
_symmetry_equiv_pos_as_xyz
   "x, y, z"

loop_
   _atom_site_label
   _atom_site_fract_x
   _atom_site_fract_y
   _atom_site_fract_z
 _atom_site_charge
 Y1 0.131888 0.768219 0.43366  2.00053798077
 Y1 0.631702 0.767401 0.4337  2.00053798077
 Y2 0.125629 0.79959 0.0507  1.96954798077
 Y2 0.625644 0.799488 0.05085  1.96954798077
 Y1 0.118285 0.232704 0.93364  2.00053798077
 Y1 0.618301 0.232542 0.93373  2.00053798077
 Y2 0.124602 0.20078 0.55068  1.96954798077
 Y2 0.624508 0.200489 0.55080  1.96954798077
 Y1 0.368102 0.26825 0.06636  2.00053798077
 Y1 0.868142 0.268205 0.066  2.00053798077
 Y2 0.374767 0.299784 0.4492  1.96954798077
 Y2 0.874552 0.299097 0.44943  1.96954798077
 Y1 0.381717 0.732715 0.56626  2.00053798077
 Y1 0.88173 0.731689 0.56628  2.00053798077
 Y2 0.375618 0.700807 0.94917  1.96954798077
 Y2 0.875633 0.700813 0.94928  1.96954798077
 P1 0.12732 0.818231 0.82009  1.49431298077
 P1 0.627254 0.818145 0.82021  1.49431298077
 P1 0.155292 0.967828 0.54325  1.49431298077
 P1 0.654218 0.966861 0.54328  1.49431298077
 P1 0.122722 0.181818 0.32016  1.49431298077
 P1 0.62275 0.181847 0.32019  1.49431298077
 P1 0.095768 0.033108 0.0432  1.49431298077
 P1 0.59575 0.032914 0.04331  1.49431298077
 P1 0.372719 0.318228 0.67987  1.49431298077
 P1 0.872733 0.318174 0.67996  1.49431298077
 P1 0.344567 0.467874 0.95666  1.49431298077
 P1 0.84462 0.467836 0.95674  1.49431298077
 P1 0.377231 0.681914 0.17977  1.49431298077
 P1 0.877307 0.681814 0.17992  1.49431298077
 P1 0.404446 0.533411 0.45669  1.49431298077
 P1 0.905463 0.532101 0.45676  1.49431298077
 H1 0.194568 0.75805 0.74279  0.446597980769
 H1 0.694568 0.758128 0.74288  0.446597980769
 H1 0.231019 0.048254 0.53461  0.446597980769
 H1 0.730407 0.046041 0.53354  0.446597980769
 H2 0.115934 0.026691 0.70183  0.257887980769
 H2 0.615515 0.026515 0.70199  0.257887980769
 H2 0.435692 0.172138 0.74512  0.257887980769
 H2 0.935935 0.171981 0.74519  0.257887980769
 H3 0.164423 0.964296 0.81152  0.153531980769
 H3 0.664049 0.964413 0.81167  0.153531980769
 H3 0.090039 0.962972 0.83353  0.153531980769
 H3 0.589692 0.96269 0.83383  0.153531980769
 H3 0.197511 0.930994 0.67677  0.153531980769
 H3 0.69706 0.931403 0.67666  0.153531980769
 H3 0.14684 0.851754 0.64309  0.153531980769
 H3 0.646618 0.851445 0.64383  0.153531980769
 H3 0.043789 0.868154 0.68189  0.153531980769
 H3 0.543325 0.867947 0.68243  0.153531980769
 H3 0.046241 0.960495 0.61474  0.153531980769
 H3 0.545765 0.960054 0.61502  0.153531980769
 H3 0.489779 0.877027 0.81521  0.153531980769
 H3 0.990182 0.876791 0.81470  0.153531980769
 H3 0.418457 0.956055 0.90171  0.153531980769
 H3 0.918802 0.955562 0.90134  0.153531980769
 H3 0.395047 0.111569 0.86360  0.153531980769
 H3 0.895329 0.111139 0.86358  0.153531980769
 H3 0.001944 0.100849 0.65717  0.153531980769
 H3 0.501618 0.1007 0.65716  0.153531980769
 H1 0.055428 0.241855 0.24285  0.446597980769
 H1 0.555479 0.241864 0.24286  0.446597980769
 H1 0.019668 0.953775 0.03346  0.446597980769
 H1 0.519706 0.953428 0.03362  0.446597980769
 H2 0.13453 0.973512 0.2019  0.257887980769
 H2 0.634519 0.97342 0.20213  0.257887980769
 H2 0.31433 0.828278 0.24486  0.257887980769
 H2 0.814251 0.827995 0.24491  0.257887980769
 H3 0.085882 0.035585 0.31170  0.153531980769
 H3 0.585875 0.035623 0.31182  0.153531980769
 H3 0.160239 0.037238 0.33374  0.153531980769
 H3 0.660243 0.037254 0.33383  0.153531980769
 H3 0.052789 0.067953 0.17671  0.153531980769
 H3 0.552775 0.06788 0.17678  0.153531980769
 H3 0.102925 0.148388 0.14387  0.153531980769
 H3 0.602917 0.148272 0.14388  0.153531980769
 H3 0.206463 0.132326 0.18228  0.153531980769
 H3 0.70649 0.132188 0.18235  0.153531980769
 H3 0.204158 0.040279 0.11486  0.153531980769
 H3 0.704136 0.040141 0.11493  0.153531980769
 H3 0.260227 0.123357 0.31485  0.153531980769
 H3 0.760249 0.123119 0.31496  0.153531980769
 H3 0.331714 0.044393 0.40114  0.153531980769
 H3 0.831635 0.04405 0.40129  0.153531980769
 H3 0.355137 0.888951 0.36309  0.153531980769
 H3 0.854984 0.888531 0.36322  0.153531980769
 H3 0.248286 0.899627 0.15707  0.153531980769
 H3 0.748278 0.89949 0.15706  0.153531980769
 H1 0.305383 0.25779 0.75708  0.446597980769
 H1 0.805406 0.257745 0.7571  0.446597980769
 H1 0.26893 0.548144 0.96550  0.446597980769
 H1 0.768973 0.54811 0.96552  0.446597980769
 H2 0.384252 0.526696 0.79806  0.257887980769
 H2 0.884158 0.526649 0.79814  0.257887980769
 H2 0.064207 0.672054 0.75495  0.257887980769
 H2 0.564326 0.671716 0.75511  0.257887980769
 H3 0.335866 0.464293 0.68816  0.153531980769
 H3 0.835829 0.464204 0.68827  0.153531980769
 H3 0.410314 0.462939 0.66663  0.153531980769
 H3 0.910251 0.462917 0.6666  0.153531980769
 H3 0.302209 0.432042 0.82293  0.153531980769
 H3 0.802289 0.431756 0.82306  0.153531980769
 H3 0.352191 0.352019 0.85662  0.153531980769
 H3 0.852408 0.351925 0.85676  0.153531980769
 H3 0.455799 0.367945 0.81869  0.153531980769
 H3 0.95593 0.368095 0.81861  0.153531980769
 H3 0.453429 0.460327 0.88571  0.153531980769
 H3 0.953523 0.460467 0.8856  0.153531980769
 H3 0.009945 0.376512 0.68623  0.153531980769
 H3 0.50996 0.376231 0.68641  0.153531980769
 H3 0.081527 0.45524 0.59955  0.153531980769
 H3 0.581725 0.454777 0.59989  0.153531980769
 H3 0.104989 0.610968 0.63687  0.153531980769
 H3 0.605227 0.610489 0.63716  0.153531980769
 H3 0.498067 0.600754 0.84306  0.153531980769
 H3 0.998049 0.600973 0.84297  0.153531980769
 H1 0.444575 0.742273 0.25688  0.446597980769
 H1 0.944617 0.74219 0.25707  0.446597980769
 H1 0.480739 0.454688 0.46669  0.446597980769
 H1 0.981123 0.45183 0.46540  0.446597980769
 H2 0.365556 0.473657 0.29815  0.257887980769
 H2 0.865889 0.473359 0.29827  0.257887980769
 H2 0.185491 0.328169 0.25461  0.257887980769
 H2 0.685734 0.328207 0.25486  0.257887980769
 H3 0.413919 0.535759 0.18821  0.153531980769
 H3 0.914264 0.535828 0.18834  0.153531980769
 H3 0.339521 0.537293 0.16643  0.153531980769
 H3 0.839842 0.537022 0.16675  0.153531980769
 H3 0.447228 0.568691 0.32309  0.153531980769
 H3 0.947734 0.568545 0.32304  0.153531980769
 H3 0.397005 0.64872 0.35607  0.153531980769
 H3 0.897481 0.648133 0.35686  0.153531980769
 H3 0.293585 0.632101 0.31824  0.153531980769
 H3 0.794106 0.631883 0.3188  0.153531980769
 H3 0.295896 0.539732 0.38531  0.153531980769
 H3 0.796465 0.539359 0.38574  0.153531980769
 H3 0.239738 0.62375 0.18580  0.153531980769
 H3 0.74021 0.623776 0.18639  0.153531980769
 H3 0.168137 0.545132 0.09924  0.153531980769
 H3 0.668572 0.545332 0.09970  0.153531980769
 H3 0.144609 0.389437 0.13662  0.153531980769
 H3 0.644984 0.38961 0.13689  0.153531980769
 H3 0.251661 0.399156 0.34251  0.153531980769
 H3 0.751927 0.399008 0.34289  0.153531980769
 C1 0.123297 0.933502 0.79446  -0.532392019231
 C1 0.622981 0.933411 0.79469  -0.532392019231
 C1 0.154835 0.921024 0.64849  -0.532392019231
 C1 0.654335 0.920819 0.64874  -0.532392019231
 C2 0.048878 0.938136 0.67876  -0.121872019231
 C2 0.548435 0.937917 0.67911  -0.121872019231
 C3 0.004324 0.983064 0.73130  -0.0247420192308
 C3 0.503933 0.983056 0.73153  -0.0247420192308
 C4 0.478411 0.94316 0.80008  -0.0404620192308
 C4 0.978798 0.942958 0.7997  -0.0404620192308
 C4 0.438345 0.987262 0.84868  -0.0404620192308
 C4 0.938703 0.986917 0.84840  -0.0404620192308
 C5 0.424189 0.071063 0.82795  0.112722980769
 C5 0.924504 0.070752 0.82786  0.112722980769
 C5 0.486438 0.066309 0.71188  0.112722980769
 C5 0.986795 0.066338 0.71183  0.112722980769
 C6 0.244084 0.733792 0.54466  0.543529647436
 C6 0.743941 0.733431 0.54474  0.543529647436
 C6 0.268189 0.766069 0.46118  0.543529647436
 C6 0.768122 0.764743 0.46102  0.543529647436
 C6 0.127716 0.828546 0.25054  0.543529647436
 C6 0.627821 0.828371 0.25074  0.543529647436
 C6 0.129888 0.729985 0.24247  0.543529647436
 C6 0.629914 0.729819 0.24248  0.543529647436
 C6 0.238326 0.700404 0.98861  0.543529647436
 C6 0.738342 0.700381 0.98865  0.543529647436
 C6 0.260371 0.790996 0.01147  0.543529647436
 C6 0.760385 0.790969 0.01151  0.543529647436
 C1 0.126957 0.06657 0.29465  -0.532392019231
 C1 0.626956 0.066572 0.29473  -0.532392019231
 C1 0.095479 0.078945 0.14875  -0.532392019231
 C1 0.595464 0.078833 0.14881  -0.532392019231
 C2 0.201465 0.062344 0.1789  -0.121872019231
 C2 0.701458 0.062209 0.17903  -0.121872019231
 C3 0.246035 0.017293 0.23131  -0.0247420192308
 C3 0.746013 0.0171 0.23138  -0.0247420192308
 C4 0.271618 0.057241 0.29972  -0.0404620192308
 C4 0.771595 0.056986 0.29982  -0.0404620192308
 C4 0.311765 0.013184 0.34820  -0.0404620192308
 C4 0.811692 0.012854 0.34834  -0.0404620192308
 C5 0.325955 0.929409 0.32748  0.112722980769
 C5 0.825822 0.929053 0.32763  0.112722980769
 C5 0.263527 0.934048 0.21169  0.112722980769
 C5 0.76349 0.933848 0.21173  0.112722980769
 C6 0.505961 0.266628 0.04479  0.543529647436
 C6 0.0 0.266632 0.04478  0.543529647436
 C6 0.481845 0.235253 0.96107  0.543529647436
 C6 0.981861 0.235261 0.96106  0.543529647436
 C6 0.12236 0.171752 0.75066  0.543529647436
 C6 0.622271 0.171552 0.75074  0.543529647436
 C6 0.120187 0.270297 0.74234  0.543529647436
 C6 0.620144 0.270106 0.74245  0.543529647436
 C6 0.011766 0.29957 0.48877  0.543529647436
 C6 0.511988 0.300701 0.48909  0.543529647436
 C6 0.48994 0.209796 0.51124  0.543529647436
 C6 0.989788 0.209032 0.51202  0.543529647436
 C1 0.376876 0.43348 0.70550  -0.532392019231
 C1 0.876859 0.433431 0.7055  -0.532392019231
 C1 0.344762 0.421408 0.85132  -0.532392019231
 C1 0.844868 0.421284 0.85143  -0.532392019231
 C2 0.450921 0.437942 0.82170  -0.121872019231
 C2 0.95099 0.438084 0.82164  -0.121872019231
 C3 0.495743 0.482732 0.76936  -0.0247420192308
 C3 0.995729 0.482974 0.76922  -0.0247420192308
 C4 0.021365 0.442742 0.7010  -0.0404620192308
 C4 0.521426 0.442441 0.70122  -0.0404620192308
 C4 0.061552 0.486676 0.65233  -0.0404620192308
 C4 0.561712 0.486277 0.65260  -0.0404620192308
 C5 0.075742 0.570599 0.67264  0.112722980769
 C5 0.57594 0.570186 0.67292  0.112722980769
 C5 0.01326 0.566338 0.78849  0.112722980769
 C5 0.513326 0.566075 0.78862  0.112722980769
 C6 0.255892 0.233795 0.95529  0.543529647436
 C6 0.755906 0.233752 0.95535  0.543529647436
 C6 0.231829 0.266069 0.03877  0.543529647436
 C6 0.731848 0.266057 0.03881  0.543529647436
 C6 0.372531 0.328641 0.24938  0.543529647436
 C6 0.872571 0.328428 0.24950  0.543529647436
 C6 0.370207 0.230075 0.25755  0.543529647436
 C6 0.870244 0.229855 0.25759  0.543529647436
 C6 0.261876 0.200486 0.51121  0.543529647436
 C6 0.761732 0.199528 0.51111  0.543529647436
 C6 0.239943 0.290968 0.48798  0.543529647436
 C6 0.739926 0.290406 0.48884  0.543529647436
 C1 0.372905 0.566676 0.20538  -0.532392019231
 C1 0.873209 0.56656 0.20562  -0.532392019231
 C1 0.404566 0.579336 0.35119  -0.532392019231
 C1 0.90514 0.578809 0.3514  -0.532392019231
 C2 0.298559 0.562118 0.32129  -0.121872019231
 C2 0.79905 0.561889 0.32176  -0.121872019231
 C3 0.253915 0.517239 0.26882  -0.0247420192308
 C3 0.754322 0.51715 0.26929  -0.0247420192308
 C4 0.228304 0.55752 0.2006  -0.0404620192308
 C4 0.728729 0.557541 0.20114  -0.0404620192308
 C4 0.188089 0.513661 0.15201  -0.0404620192308
 C4 0.688498 0.513787 0.15245  -0.0404620192308
 C5 0.173869 0.429739 0.17236  0.112722980769
 C5 0.67424 0.42985 0.17269  0.112722980769
 C5 0.236388 0.433849 0.28807  0.112722980769
 C5 0.736719 0.433772 0.28847  0.112722980769
 C6 0.994066 0.766647 0.45534  0.543529647436
 C6 0.494117 0.766161 0.45522  0.543529647436
 C6 0.018141 0.735223 0.53905  0.543529647436
 C6 0.518101 0.733886 0.53871  0.543529647436
 C6 0.377734 0.671759 0.74924  0.543529647436
 C6 0.877087 0.671557 0.74941  0.543529647436
 C6 0.379886 0.770318 0.75748  0.543529647436
 C6 0.879743 0.770117 0.75742  0.543529647436
 C6 0.488454 0.800191 0.0111  0.543529647436
 C6 0.988464 0.800315 0.01109  0.543529647436
 C6 0.010287 0.709489 0.98876  0.543529647436
 C6 0.510293 0.709393 0.98878  0.543529647436
 N1 0.110647 0.958227 0.70633  0.237297980769
 N1 0.610205 0.958066 0.7065  0.237297980769
 N2 0.447861 0.10755 0.76016  -0.106422019231
 N2 0.948177 0.107427 0.76016  -0.106422019231
 N1 0.139733 0.041961 0.20654  0.237297980769
 N1 0.639717 0.041886 0.20663  0.237297980769
 N2 0.302184 0.892852 0.25985  -0.106422019231
 N2 0.802092 0.892575 0.25993  -0.106422019231
 N1 0.389315 0.458226 0.79369  0.237297980769
 N1 0.889339 0.45822 0.79373  0.237297980769
 N2 0.051969 0.607405 0.74013  -0.106422019231
 N2 0.552116 0.607061 0.74033  -0.106422019231
 N1 0.360268 0.542054 0.29356  0.237297980769
 N1 0.860716 0.5418 0.29383  0.237297980769
 N2 0.197659 0.39285 0.23979  -0.106422019231
 N2 0.697968 0.392877 0.2401  -0.106422019231
 O1 0.082406 0.76993 0.77076  -0.814832019231
 O1 0.582406 0.769758 0.77083  -0.814832019231
 O2 0.125111 0.81854 0.9128  -0.865395352564
 O2 0.625085 0.818457 0.91299  -0.865395352564
 O3 0.192473 0.789038 0.79511  -0.706482019231
 O3 0.692442 0.789136 0.79519  -0.706482019231
 O2 0.119915 0.048963 0.54125  -0.865395352564
 O2 0.619514 0.048605 0.54124  -0.865395352564
 O2 0.134327 0.894988 0.48870  -0.865395352564
 O2 0.632391 0.893921 0.48949  -0.865395352564
 O3 0.221984 0.984824 0.5246  -0.706482019231
 O3 0.720937 0.982746 0.52398  -0.706482019231
 O4 0.189586 0.722102 0.54839  -0.617016602564
 O4 0.689406 0.722151 0.54858  -0.617016602564
 O4 0.28047 0.722546 0.60201  -0.617016602564
 O4 0.780324 0.722454 0.60214  -0.617016602564
 O4 0.322304 0.781079 0.45830  -0.617016602564
 O4 0.822422 0.778054 0.45773  -0.617016602564
 O4 0.232357 0.774551 0.40270  -0.617016602564
 O4 0.732241 0.774201 0.40275  -0.617016602564
 O4 0.131978 0.862181 0.32064  -0.617016602564
 O4 0.632089 0.861823 0.32092  -0.617016602564
 O4 0.123194 0.870777 0.18335  -0.617016602564
 O4 0.623327 0.87071 0.18360  -0.617016602564
 O4 0.130146 0.700851 0.16993  -0.617016602564
 O4 0.630158 0.700782 0.16991  -0.617016602564
 O4 0.132492 0.688536 0.31015  -0.617016602564
 O4 0.632486 0.68824 0.31008  -0.617016602564
 O4 0.275779 0.650816 0.95464  -0.617016602564
 O4 0.775804 0.650787 0.95471  -0.617016602564
 O4 0.187088 0.681305 0.00717  -0.617016602564
 O4 0.687105 0.681278 0.00721  -0.617016602564
 O4 0.2247 0.837078 0.05195  -0.617016602564
 O4 0.724706 0.837064 0.05196  -0.617016602564
 O4 0.311234 0.81087 0.99067  -0.617016602564
 O4 0.811244 0.810858 0.99071  -0.617016602564
 O1 0.167592 0.230206 0.27073  -0.814832019231
 O1 0.667621 0.23021 0.27074  -0.814832019231
 O2 0.124887 0.18146 0.41293  -0.865395352564
 O2 0.624938 0.181553 0.41297  -0.865395352564
 O3 0.057545 0.210877 0.29519  -0.706482019231
 O3 0.557575 0.210894 0.29521  -0.706482019231
 O2 0.130552 0.951443 0.04109  -0.865395352564
 O2 0.630582 0.951293 0.04122  -0.865395352564
 O2 0.11757 0.106222 0.98952  -0.865395352564
 O2 0.617532 0.105994 0.9895  -0.865395352564
 O3 0.029078 0.017099 0.02392  -0.706482019231
 O3 0.529082 0.016762 0.02398  -0.706482019231
 O4 0.060502 0.277883 0.04858  -0.617016602564
 O4 0.560504 0.277831 0.04860  -0.617016602564
 O4 0.469546 0.277684 0.10217  -0.617016602564
 O4 0.969581 0.277631 0.10219  -0.617016602564
 O4 0.427552 0.221909 0.95782  -0.617016602564
 O4 0.927571 0.221897 0.95782  -0.617016602564
 O4 0.017748 0.225824 0.90278  -0.617016602564
 O4 0.517758 0.225783 0.90279  -0.617016602564
 O4 0.117978 0.138366 0.82089  -0.617016602564
 O4 0.617962 0.138121 0.82096  -0.617016602564
 O4 0.127032 0.129408 0.68358  -0.617016602564
 O4 0.626825 0.129227 0.68362  -0.617016602564
 O4 0.119966 0.299332 0.66973  -0.617016602564
 O4 0.619898 0.299138 0.66986  -0.617016602564
 O4 0.117543 0.311882 0.80990  -0.617016602564
 O4 0.617557 0.311695 0.81002  -0.617016602564
 O4 0.474527 0.350917 0.45595  -0.617016602564
 O4 0.974319 0.349025 0.45467  -0.617016602564
 O4 0.062997 0.318785 0.50715  -0.617016602564
 O4 0.563363 0.319215 0.50737  -0.617016602564
 O4 0.02561 0.162946 0.55217  -0.617016602564
 O4 0.525464 0.163411 0.55168  -0.617016602564
 O4 0.439225 0.189787 0.4899  -0.617016602564
 O4 0.93881 0.189169 0.49193  -0.617016602564
 O1 0.417572 0.269943 0.72922  -0.814832019231
 O1 0.917602 0.26989 0.72926  -0.814832019231
 O2 0.374938 0.318584 0.587  -0.865395352564
 O2 0.874918 0.318592 0.58718  -0.865395352564
 O3 0.307519 0.288996 0.70486  -0.706482019231
 O3 0.807531 0.288944 0.7049  -0.706482019231
 O2 0.380058 0.549019 0.95873  -0.865395352564
 O2 0.880111 0.548977 0.95883  -0.865395352564
 O2 0.365553 0.394911 0.0110  -0.865395352564
 O2 0.865573 0.394884 0.01116  -0.865395352564
 O3 0.277922 0.484736 0.9754  -0.706482019231
 O3 0.777963 0.4847 0.97540  -0.706482019231
 O4 0.310365 0.222078 0.95157  -0.617016602564
 O4 0.81038 0.222077 0.95160  -0.617016602564
 O4 0.2195 0.222652 0.89790  -0.617016602564
 O4 0.719499 0.222548 0.89799  -0.617016602564
 O4 0.177747 0.281093 0.04165  -0.617016602564
 O4 0.677763 0.281068 0.04169  -0.617016602564
 O4 0.267667 0.274483 0.09727  -0.617016602564
 O4 0.767692 0.274504 0.09731  -0.617016602564
 O4 0.368312 0.362211 0.17922  -0.617016602564
 O4 0.868537 0.362047 0.17934  -0.617016602564
 O4 0.377153 0.370905 0.31651  -0.617016602564
 O4 0.877018 0.370632 0.31668  -0.617016602564
 O4 0.369926 0.200995 0.33013  -0.617016602564
 O4 0.869987 0.20067 0.33014  -0.617016602564
 O4 0.367477 0.18857 0.18994  -0.617016602564
 O4 0.867493 0.188436 0.18994  -0.617016602564
 O4 0.224311 0.150983 0.54530  -0.617016602564
 O4 0.724151 0.149512 0.54448  -0.617016602564
 O4 0.313088 0.181315 0.49284  -0.617016602564
 O4 0.813016 0.180733 0.49270  -0.617016602564
 O4 0.275802 0.337063 0.44768  -0.617016602564
 O4 0.775629 0.336622 0.44836  -0.617016602564
 O4 0.189016 0.310816 0.50824  -0.617016602564
 O4 0.689241 0.310518 0.51006  -0.617016602564
 O1 0.332432 0.730271 0.22917  -0.814832019231
 O1 0.832437 0.730091 0.22925  -0.814832019231
 O2 0.375065 0.681536 0.08700  -0.865395352564
 O2 0.875103 0.681452 0.08713  -0.865395352564
 O3 0.442462 0.710964 0.20474  -0.706482019231
 O3 0.942504 0.711039 0.20484  -0.706482019231
 O2 0.3698 0.451498 0.45879  -0.865395352564
 O2 0.869988 0.450949 0.45885  -0.865395352564
 O2 0.382473 0.60624 0.51042  -0.865395352564
 O2 0.884547 0.604951 0.51126  -0.865395352564
 O3 0.471183 0.517923 0.47598  -0.706482019231
 O3 0.972127 0.515208 0.47534  -0.706482019231
 O4 0.439643 0.777903 0.45148  -0.617016602564
 O4 0.93958 0.777909 0.45149  -0.617016602564
 O4 0.030523 0.777678 0.3979  -0.617016602564
 O4 0.530543 0.777352 0.39784  -0.617016602564
 O4 0.072405 0.721836 0.542  -0.617016602564
 O4 0.572187 0.718896 0.5416  -0.617016602564
 O4 0.482206 0.725483 0.597  -0.617016602564
 O4 0.982222 0.725722 0.59732  -0.617016602564
 O4 0.381845 0.638335 0.67903  -0.617016602564
 O4 0.880529 0.637862 0.67924  -0.617016602564
 O4 0.373331 0.629419 0.81640  -0.617016602564
 O4 0.872983 0.629376 0.81668  -0.617016602564
 O4 0.380136 0.799386 0.8300  -0.617016602564
 O4 0.880201 0.799314 0.82994  -0.617016602564
 O4 0.382507 0.811888 0.68987  -0.617016602564
 O4 0.88252 0.811487 0.6897  -0.617016602564
 O4 0.02599 0.850309 0.04447  -0.617016602564
 O4 0.526002 0.850098 0.04468  -0.617016602564
 O4 0.437198 0.819075 0.99268  -0.617016602564
 O4 0.937177 0.819109 0.99268  -0.617016602564
 O4 0.474603 0.663229 0.94830  -0.617016602564
 O4 0.974618 0.663277 0.94833  -0.617016602564
 O4 0.060996 0.689438 0.00995  -0.617016602564
 O4 0.561002 0.689341 0.00995  -0.617016602564
