#======================================================================

# CRYSTAL DATA

#----------------------------------------------------------------------

data_VESTA_phase_1


_pd_phase_name                         MOF
_cell_length_a                         15.60400
_cell_length_b                         18.90400
_cell_length_c                         19.85300
_cell_angle_alpha                      88.50500
_cell_angle_beta                       90.61400
_cell_angle_gamma                      90.14600
_symmetry_space_group_name_H-M         "P 1"
_symmetry_Int_Tables_number            1

loop_
_symmetry_equiv_pos_as_xyz
   "x, y, z"

loop_
   _atom_site_label
   _atom_site_fract_x
   _atom_site_fract_y
   _atom_site_fract_z
 _atom_site_charge
 Zn1 0.892006 0.941264 0.51409  0.900252672414
 Zn1 0.389676 0.558477 0.48537  0.900252672414
 Zn1 0.107985 0.058717 0.48593  0.900252672414
 Zn1 0.610311 0.441508 0.51465  0.900252672414
 H1 0.952434 0.825884 0.75283  0.122385529557
 H1 0.94404 0.807666 0.2904  0.122385529557
 H1 0.113796 0.653631 0.50964  0.122385529557
 H1 0.943984 0.83608 0.62612  0.122385529557
 H1 0.847487 0.036932 0.75800  0.122385529557
 H1 0.01337 0.76719 0.52006  0.122385529557
 H1 0.880255 0.028457 0.26099  0.122385529557
 H1 0.117956 0.883072 0.07847  0.122385529557
 H1 0.842705 0.037378 0.63158  0.122385529557
 H1 0.940111 0.826581 0.4152  0.122385529557
 H1 0.116906 0.895129 0.95152  0.122385529557
 H1 0.693848 0.945163 0.08091  0.122385529557
 H1 0.691191 0.94955 0.95343  0.122385529557
 H1 0.878005 0.037957 0.38648  0.122385529557
 H1 0.452056 0.674098 0.24776  0.122385529557
 H1 0.444078 0.692374 0.70970  0.122385529557
 H1 0.612772 0.845707 0.48876  0.122385529557
 H1 0.442887 0.663843 0.37428  0.122385529557
 H1 0.348376 0.462272 0.24044  0.122385529557
 H1 0.5123 0.731459 0.48012  0.122385529557
 H1 0.379277 0.471534 0.7379  0.122385529557
 H1 0.618128 0.617028 0.92446  0.122385529557
 H1 0.342731 0.461803 0.36677  0.122385529557
 H1 0.439448 0.673612 0.58476  0.122385529557
 H1 0.617149 0.60505 0.05137  0.122385529557
 H1 0.193734 0.554658 0.91520  0.122385529557
 H1 0.191196 0.550226 0.04263  0.122385529557
 H1 0.375912 0.462288 0.61242  0.122385529557
 H1 0.047536 0.174095 0.24719  0.122385529557
 H1 0.05594 0.192313 0.70958  0.122385529557
 H1 0.886189 0.346347 0.49039  0.122385529557
 H1 0.055987 0.1639 0.37390  0.122385529557
 H1 0.152505 0.963054 0.24202  0.122385529557
 H1 0.986617 0.232789 0.47997  0.122385529557
 H1 0.119744 0.971526 0.73903  0.122385529557
 H1 0.882033 0.116906 0.92154  0.122385529557
 H1 0.157285 0.962608 0.36844  0.122385529557
 H1 0.059869 0.173398 0.58473  0.122385529557
 H1 0.883081 0.104853 0.048  0.122385529557
 H1 0.30614 0.05482 0.9191  0.122385529557
 H1 0.308796 0.050437 0.04659  0.122385529557
 H1 0.121991 0.962025 0.61354  0.122385529557
 H1 0.547923 0.325882 0.75226  0.122385529557
 H1 0.555931 0.307594 0.29032  0.122385529557
 H1 0.387203 0.154272 0.51126  0.122385529557
 H1 0.557092 0.336136 0.62574  0.122385529557
 H1 0.651614 0.537706 0.75958  0.122385529557
 H1 0.487678 0.26852 0.519  0.122385529557
 H1 0.620684 0.528445 0.26203  0.122385529557
 H1 0.38186 0.382948 0.07556  0.122385529557
 H1 0.657248 0.538177 0.63325  0.122385529557
 H1 0.560558 0.326357 0.41525  0.122385529557
 H1 0.382837 0.394926 0.94865  0.122385529557
 H1 0.806254 0.44532 0.08482  0.122385529557
 H1 0.808793 0.449752 0.95739  0.122385529557
 H1 0.624036 0.537693 0.38759  0.122385529557
 C1 0.126473 0.831176 0.49883  -0.201677327586
 C2 0.981761 0.912318 0.94475  -0.0709006609195
 C3 0.293644 0.678039 0.48356  0.680782672414
 C4 0.927906 0.873733 0.72787  -0.125673327586
 C5 0.982633 0.91971 0.87024  0.512727672414
 C4 0.929207 0.859477 0.30983  -0.125673327586
 C6 0.910833 0.916958 0.26692  0.253057672414
 C4 0.134546 0.70837 0.5034  -0.125673327586
 C6 0.90012 0.931013 0.76458  0.253057672414
 C2 0.983413 0.901321 0.08657  -0.0709006609195
 C7 0.923728 0.879022 0.65782  0.191367672414
 C5 0.822364 0.934197 0.87089  0.512727672414
 C4 0.868779 0.991145 0.7308  -0.125673327586
 C4 0.081661 0.768233 0.5091  -0.125673327586
 C2 0.828258 0.924872 0.08731  -0.0709006609195
 C2 0.90417 0.919302 0.98015  -0.0709006609195
 C5 0.986063 0.896589 0.16131  0.512727672414
 C4 0.892917 0.982567 0.29368  -0.125673327586
 C4 0.058625 0.893575 0.05060  -0.125673327586
 C5 0.828195 0.923208 0.16201  0.512727672414
 C7 0.866499 0.991799 0.66078  0.191367672414
 C1 0.219037 0.725935 0.48952  -0.201677327586
 C2 0.90526 0.915 0.05190  -0.0709006609195
 C7 0.927701 0.869798 0.379  0.191367672414
 C2 0.825732 0.931548 0.94552  -0.0709006609195
 C4 0.05796 0.899816 0.97996  -0.125673327586
 C4 0.752061 0.937563 0.0521  -0.125673327586
 C4 0.750692 0.940362 0.98148  -0.125673327586
 C7 0.892278 0.987951 0.36328  0.191367672414
 C3 0.092155 0.903443 0.50305  0.680782672414
 C1 0.626403 0.668321 0.50116  -0.201677327586
 C2 0.481943 0.587672 0.05602  -0.0709006609195
 C3 0.79401 0.822343 0.51408  0.680782672414
 C4 0.427677 0.626048 0.2722  -0.125673327586
 C5 0.482847 0.580289 0.13059  0.512727672414
 C4 0.428858 0.640592 0.69003  -0.125673327586
 C6 0.4104 0.583049 0.73262  0.253057672414
 C4 0.633972 0.791157 0.49529  -0.125673327586
 C6 0.400341 0.568606 0.23492  0.253057672414
 C2 0.483505 0.59868 0.91415  -0.0709006609195
 C7 0.423156 0.620705 0.34218  0.191367672414
 C5 0.322512 0.565654 0.12732  0.512727672414
 C4 0.369241 0.508207 0.26802  -0.125673327586
 C4 0.581 0.73088 0.49057  -0.125673327586
 C2 0.328235 0.575033 0.91097  -0.0709006609195
 C2 0.404282 0.580639 0.01935  -0.0709006609195
 C5 0.486056 0.603354 0.83941  0.512727672414
 C4 0.391991 0.517472 0.70554  -0.125673327586
 C4 0.558767 0.606481 0.95136  -0.125673327586
 C5 0.328052 0.576729 0.83626  0.512727672414
 C7 0.366559 0.507532 0.33807  0.191367672414
 C1 0.719045 0.774256 0.50872  -0.201677327586
 C2 0.405344 0.58491 0.94760  -0.0709006609195
 C7 0.426868 0.630364 0.62073  0.191367672414
 C2 0.32583 0.568299 0.05273  -0.0709006609195
 C4 0.55813 0.60028 0.02201  -0.125673327586
 C4 0.252024 0.562264 0.94486  -0.125673327586
 C4 0.250709 0.559462 0.01554  -0.125673327586
 C7 0.390834 0.512205 0.63591  0.191367672414
 C3 0.592832 0.595549 0.49787  0.680782672414
 C1 0.873509 0.168806 0.50120  -0.201677327586
 C2 0.018229 0.087677 0.05527  -0.0709006609195
 C3 0.706341 0.321949 0.51646  0.680782672414
 C4 0.072071 0.126249 0.27215  -0.125673327586
 C5 0.017352 0.080267 0.12978  0.512727672414
 C4 0.070777 0.140503 0.69019  -0.125673327586
 C6 0.089159 0.083026 0.73310  0.253057672414
 C4 0.865439 0.291608 0.49659  -0.125673327586
 C6 0.099859 0.06897 0.23544  0.253057672414
 C2 0.016575 0.098654 0.91345  -0.0709006609195
 C7 0.076245 0.120957 0.34220  0.191367672414
 C5 0.177622 0.065782 0.12913  0.512727672414
 C4 0.131211 0.008841 0.2691  -0.125673327586
 C4 0.918326 0.231747 0.49087  -0.125673327586
 C2 0.171728 0.075099 0.91271  -0.0709006609195
 C2 0.095815 0.080669 0.01987  -0.0709006609195
 C5 0.013929 0.103403 0.83871  0.512727672414
 C4 0.107078 0.017416 0.70634  -0.125673327586
 C4 0.941365 0.106411 0.9494  -0.125673327586
 C5 0.171797 0.076781 0.83801  0.512727672414
 C7 0.133485 0.008185 0.33924  0.191367672414
 C1 0.780945 0.27405 0.51050  -0.201677327586
 C2 0.094729 0.084986 0.94812  -0.0709006609195
 C7 0.072281 0.130181 0.62092  0.191367672414
 C2 0.174256 0.068445 0.05450  -0.0709006609195
 C4 0.942026 0.100158 0.0200  -0.125673327586
 C4 0.247927 0.062423 0.9478  -0.125673327586
 C4 0.249294 0.059615 0.01854  -0.125673327586
 C7 0.107716 0.012031 0.63674  0.191367672414
 C3 0.907831 0.09654 0.49697  0.680782672414
 C1 0.373577 0.331663 0.49886  -0.201677327586
 C2 0.518044 0.412296 0.94400  -0.0709006609195
 C3 0.205973 0.177643 0.48594  0.680782672414
 C4 0.572302 0.373931 0.72780  -0.125673327586
 C5 0.51714 0.419689 0.86943  0.512727672414
 C4 0.571141 0.359379 0.30999  -0.125673327586
 C6 0.589582 0.416926 0.26740  0.253057672414
 C4 0.36601 0.208823 0.5047  -0.125673327586
 C6 0.599643 0.431371 0.765  0.253057672414
 C2 0.516484 0.401296 0.08587  -0.0709006609195
 C7 0.576822 0.379276 0.65783  0.191367672414
 C5 0.677475 0.434327 0.872  0.512727672414
 C4 0.630745 0.491771 0.73200  -0.125673327586
 C4 0.418977 0.269103 0.50945  -0.125673327586
 C2 0.671752 0.42495 0.08905  -0.0709006609195
 C2 0.595702 0.419356 0.98067  -0.0709006609195
 C5 0.513935 0.396621 0.16061  0.512727672414
 C4 0.607982 0.482505 0.29448  -0.125673327586
 C4 0.441222 0.393491 0.04866  -0.125673327586
 C5 0.671937 0.42325 0.16375  0.512727672414
 C7 0.633424 0.492447 0.66195  0.191367672414
 C1 0.280939 0.225731 0.49129  -0.201677327586
 C2 0.594648 0.415051 0.0524  -0.0709006609195
 C7 0.573124 0.369607 0.37929  0.191367672414
 C2 0.67416 0.431672 0.94729  -0.0709006609195
 C4 0.441855 0.3997 0.97801  -0.125673327586
 C4 0.747966 0.437709 0.05516  -0.125673327586
 C4 0.749279 0.440524 0.98447  -0.125673327586
 C7 0.60913 0.487773 0.36410  0.191367672414
 C3 0.407154 0.404435 0.50215  0.680782672414
 S1 0.233548 0.816365 0.48237  0.140622672414
 S1 0.734063 0.683992 0.51660  0.140622672414
 S1 0.766434 0.18362 0.51765  0.140622672414
 S1 0.265919 0.315995 0.48341  0.140622672414
 N1 0.909041 0.932795 0.40554  -0.308102327586
 N2 0.902201 0.927622 0.83753  -0.259452327586
 N1 0.893641 0.937074 0.62477  -0.308102327586
 N2 0.908524 0.910461 0.19446  -0.259452327586
 N1 0.407581 0.567437 0.59397  -0.308102327586
 N2 0.402427 0.572131 0.16198  -0.259452327586
 N1 0.393086 0.56248 0.37464  -0.308102327586
 N2 0.40838 0.589466 0.80506  -0.259452327586
 N1 0.090947 0.067185 0.59448  -0.308102327586
 N2 0.097786 0.072365 0.16249  -0.259452327586
 N1 0.106341 0.062909 0.37525  -0.308102327586
 N2 0.091464 0.089512 0.80556  -0.259452327586
 N1 0.592398 0.432538 0.40605  -0.308102327586
 N2 0.597559 0.42785 0.8380  -0.259452327586
 N1 0.606891 0.437502 0.62538  -0.308102327586
 N2 0.591612 0.410505 0.1949  -0.259452327586
 O1 0.01815 0.910614 0.52767  -0.595717327586
 O1 0.141309 0.954695 0.4841  -0.595717327586
 O2 0.367273 0.703996 0.47492  -0.486116327586
 O2 0.049517 0.919574 0.83817  -0.486116327586
 O2 0.052052 0.882739 0.19305  -0.486116327586
 O1 0.277288 0.611118 0.48894  -0.595717327586
 O2 0.755409 0.941382 0.83890  -0.486116327586
 O2 0.76324 0.932179 0.19459  -0.486116327586
 O1 0.51775 0.586599 0.47478  -0.595717327586
 O1 0.644263 0.545309 0.51608  -0.595717327586
 O2 0.867703 0.796282 0.52275  -0.486116327586
 O2 0.549721 0.580601 0.1637  -0.486116327586
 O2 0.552023 0.617175 0.80863  -0.486116327586
 O1 0.778062 0.889252 0.50843  -0.595717327586
 O2 0.255537 0.558556 0.15823  -0.486116327586
 O2 0.263002 0.567793 0.8026  -0.486116327586
 O1 0.981838 0.089376 0.47235  -0.595717327586
 O1 0.858682 0.045284 0.51586  -0.595717327586
 O2 0.632712 0.295989 0.525  -0.486116327586
 O2 0.950467 0.080412 0.16185  -0.486116327586
 O2 0.947938 0.117245 0.80697  -0.486116327586
 O1 0.722705 0.388868 0.51107  -0.595717327586
 O2 0.244581 0.05861 0.1611  -0.486116327586
 O2 0.236753 0.06781 0.80543  -0.486116327586
 O1 0.482234 0.413386 0.52524  -0.595717327586
 O1 0.355723 0.454672 0.48393  -0.595717327586
 O2 0.132278 0.2037 0.47727  -0.486116327586
 O2 0.450264 0.419384 0.83623  -0.486116327586
 O2 0.447965 0.382813 0.19139  -0.486116327586
 O1 0.221924 0.110735 0.49158  -0.595717327586
 O2 0.74445 0.441432 0.84179  -0.486116327586
 O2 0.736988 0.432197 0.19737  -0.486116327586
