#======================================================================

# CRYSTAL DATA

#----------------------------------------------------------------------

data_VESTA_phase_1


_pd_phase_name                         MOF
_cell_length_a                         12.81900
_cell_length_b                         14.25700
_cell_length_c                         20.17200
_cell_angle_alpha                      89.87200
_cell_angle_beta                       95.07800
_cell_angle_gamma                      90.12600
_symmetry_space_group_name_H-M         "P 1"
_symmetry_Int_Tables_number            1

loop_
_symmetry_equiv_pos_as_xyz
   "x, y, z"

loop_
   _atom_site_label
   _atom_site_fract_x
   _atom_site_fract_y
   _atom_site_fract_z
 _atom_site_charge
 Zn1 0.493376 0.193798 0.93868  1.07534852459
 Zn1 0.994682 0.193816 0.93877  1.07534852459
 Zn2 0.252496 0.605111 0.54419  1.14659852459
 Zn2 0.75163 0.604789 0.54418  1.14659852459
 Zn1 0.005097 0.695308 0.56102  1.07534852459
 Zn1 0.506431 0.694825 0.56077  1.07534852459
 Zn2 0.247496 0.103722 0.95568  1.14659852459
 Zn2 0.746916 0.103797 0.9556  1.14659852459
 Zn1 0.004975 0.806202 0.06121  1.07534852459
 Zn1 0.506412 0.806275 0.06118  1.07534852459
 Zn2 0.24539 0.394856 0.4558  1.14659852459
 Zn2 0.746245 0.395174 0.45585  1.14659852459
 Zn1 0.492787 0.304697 0.43903  1.07534852459
 Zn1 0.991416 0.305131 0.43932  1.07534852459
 Zn2 0.252629 0.896028 0.04436  1.14659852459
 Zn2 0.751859 0.896421 0.04425  1.14659852459
 Zn3 0.999802 0.501019 0.49996  1.09494852459
 Zn3 0.498067 0.49886 0.50017  1.09494852459
 Zn3 0.999873 0.99997 0.99993  1.09494852459
 Zn3 0.498721 0.999987 0.99997  1.09494852459
 H1 0.053982 0.301469 0.67276  0.101815191257
 H1 0.554706 0.300684 0.67286  0.101815191257
 H1 0.122098 0.20805 0.77245  0.101815191257
 H1 0.623191 0.207393 0.77256  0.101815191257
 H1 0.429123 0.323062 0.75752  0.101815191257
 H1 0.92949 0.324198 0.75815  0.101815191257
 H1 0.362645 0.412239 0.65594  0.101815191257
 H1 0.862709 0.413222 0.6565  0.101815191257
 H1 0.362889 0.370812 0.96442  0.101815191257
 H1 0.861532 0.370597 0.96468  0.101815191257
 H1 0.068172 0.466574 0.02536  0.101815191257
 H1 0.567015 0.466286 0.02592  0.101815191257
 H2 0.102074 0.645018 0.46201  0.47652852459
 H2 0.601446 0.642212 0.46180  0.47652852459
 H2 0.419136 0.55336 0.60894  0.47652852459
 H2 0.919146 0.553043 0.60857  0.47652852459
 H1 0.444833 0.803668 0.82658  0.101815191257
 H1 0.944762 0.802747 0.82719  0.101815191257
 H1 0.376959 0.710923 0.7266  0.101815191257
 H1 0.877064 0.709382 0.72752  0.101815191257
 H1 0.069714 0.824032 0.74172  0.101815191257
 H1 0.570024 0.823489 0.74151  0.101815191257
 H1 0.135892 0.912307 0.84364  0.101815191257
 H1 0.636085 0.912703 0.84302  0.101815191257
 H1 0.138339 0.868526 0.53499  0.101815191257
 H1 0.637172 0.869388 0.53501  0.101815191257
 H1 0.431656 0.969558 0.47422  0.101815191257
 H1 0.930993 0.967894 0.47339  0.101815191257
 H2 0.396963 0.143619 0.03807  0.47652852459
 H2 0.897463 0.143411 0.03778  0.47652852459
 H2 0.079792 0.051907 0.89106  0.47652852459
 H2 0.579138 0.051791 0.89121  0.47652852459
 H1 0.444269 0.698437 0.32733  0.101815191257
 H1 0.944501 0.698863 0.32773  0.101815191257
 H1 0.37633 0.791866 0.2275  0.101815191257
 H1 0.876952 0.792442 0.22793  0.101815191257
 H1 0.069329 0.676631 0.24215  0.101815191257
 H1 0.569815 0.677171 0.24191  0.101815191257
 H1 0.1356 0.587483 0.34380  0.101815191257
 H1 0.635754 0.587708 0.34352  0.101815191257
 H1 0.1382 0.629437 0.03521  0.101815191257
 H1 0.636893 0.629161 0.03562  0.101815191257
 H1 0.432803 0.533671 0.97415  0.101815191257
 H1 0.931537 0.533469 0.97453  0.101815191257
 H2 0.395759 0.354832 0.53807  0.47652852459
 H2 0.896335 0.357718 0.53831  0.47652852459
 H2 0.078677 0.446603 0.39118  0.47652852459
 H2 0.578713 0.447055 0.39159  0.47652852459
 H1 0.053986 0.196388 0.17291  0.101815191257
 H1 0.553845 0.197179 0.17251  0.101815191257
 H1 0.121363 0.289295 0.27292  0.101815191257
 H1 0.621084 0.29051 0.27231  0.101815191257
 H1 0.428791 0.17624 0.25847  0.101815191257
 H1 0.92862 0.177492 0.25830  0.101815191257
 H1 0.363088 0.087722 0.15655  0.101815191257
 H1 0.863017 0.088359 0.15663  0.101815191257
 H1 0.359605 0.131455 0.46521  0.101815191257
 H1 0.860701 0.130501 0.4646  0.101815191257
 H1 0.066266 0.030411 0.52595  0.101815191257
 H1 0.566899 0.032012 0.52633  0.101815191257
 H2 0.102208 0.856372 0.96215  0.47652852459
 H2 0.602315 0.856962 0.96182  0.47652852459
 H2 0.420185 0.947977 0.10899  0.47652852459
 H2 0.919722 0.948277 0.10861  0.47652852459
 C1 0.163562 0.421342 0.59958  0.70880852459
 C1 0.663909 0.42118 0.5998  0.70880852459
 C2 0.20368 0.36337 0.65833  -0.129254808743
 C2 0.704068 0.363418 0.65867  -0.129254808743
 C3 0.136254 0.305325 0.69132  -0.0525631420765
 C3 0.6369 0.304972 0.69154  -0.0525631420765
 C3 0.174202 0.25317 0.74675  -0.0525631420765
 C3 0.675056 0.252885 0.74697  -0.0525631420765
 C2 0.280034 0.259617 0.77096  -0.129254808743
 C2 0.780789 0.259855 0.77130  -0.129254808743
 C3 0.347492 0.317565 0.73792  -0.0525631420765
 C3 0.847954 0.318284 0.73843  -0.0525631420765
 C3 0.309985 0.367871 0.68174  -0.0525631420765
 C3 0.810262 0.368511 0.68226  -0.0525631420765
 C1 0.321191 0.207898 0.83277  0.70880852459
 C1 0.822212 0.20804 0.83302  0.70880852459
 C1 0.167476 0.310997 0.98573  0.70880852459
 C1 0.665989 0.310874 0.98584  0.70880852459
 C2 0.21065 0.408422 0.99409  -0.129254808743
 C2 0.709342 0.408213 0.99441  -0.129254808743
 C3 0.313932 0.427391 0.98013  -0.0525631420765
 C3 0.812625 0.427192 0.98044  -0.0525631420765
 C3 0.147792 0.481863 0.01389  -0.0525631420765
 C3 0.646563 0.481615 0.01433  -0.0525631420765
 C1 0.334786 0.921397 0.90022  0.70880852459
 C1 0.834753 0.921509 0.90016  0.70880852459
 C2 0.294912 0.864284 0.84117  -0.129254808743
 C2 0.794966 0.864062 0.84119  -0.129254808743
 C3 0.362562 0.807181 0.8080  -0.0525631420765
 C3 0.862579 0.806411 0.80843  -0.0525631420765
 C3 0.324775 0.755457 0.75243  -0.0525631420765
 C3 0.824883 0.754292 0.75303  -0.0525631420765
 C2 0.218909 0.761494 0.72831  -0.129254808743
 C2 0.71912 0.760385 0.72865  -0.129254808743
 C3 0.151316 0.818773 0.7613  -0.0525631420765
 C3 0.651544 0.818169 0.76133  -0.0525631420765
 C3 0.188635 0.86855 0.81772  -0.0525631420765
 C3 0.688807 0.86846 0.81747  -0.0525631420765
 C1 0.177662 0.709936 0.66657  0.70880852459
 C1 0.678203 0.708392 0.66702  0.70880852459
 C1 0.334107 0.811828 0.51339  0.70880852459
 C1 0.832452 0.811487 0.51315  0.70880852459
 C2 0.290029 0.908827 0.50543  -0.129254808743
 C2 0.788968 0.908553 0.50502  -0.129254808743
 C3 0.186516 0.926063 0.51946  -0.0525631420765
 C3 0.68582 0.926534 0.51940  -0.0525631420765
 C3 0.351914 0.983457 0.48588  -0.0525631420765
 C3 0.851538 0.98257 0.48527  -0.0525631420765
 C1 0.334493 0.578572 0.40042  0.70880852459
 C1 0.834384 0.578832 0.40041  0.70880852459
 C2 0.294542 0.636463 0.34160  -0.129254808743
 C2 0.794667 0.63687 0.34164  -0.129254808743
 C3 0.362036 0.694539 0.30868  -0.0525631420765
 C3 0.862344 0.694993 0.30892  -0.0525631420765
 C3 0.324193 0.746687 0.25321  -0.0525631420765
 C3 0.82472 0.747247 0.25347  -0.0525631420765
 C2 0.218413 0.740196 0.22890  -0.129254808743
 C2 0.719019 0.740736 0.22901  -0.129254808743
 C3 0.150908 0.682178 0.26184  -0.0525631420765
 C3 0.651323 0.682681 0.26176  -0.0525631420765
 C3 0.188295 0.631895 0.31806  -0.0525631420765
 C3 0.688515 0.632237 0.31792  -0.0525631420765
 C1 0.177314 0.79194 0.16707  0.70880852459
 C1 0.678154 0.792607 0.16725  0.70880852459
 C1 0.333795 0.689107 0.01413  0.70880852459
 C1 0.832288 0.689021 0.01426  0.70880852459
 C2 0.290443 0.591772 0.00558  -0.129254808743
 C2 0.7891 0.591593 0.00588  -0.129254808743
 C3 0.187121 0.572828 0.01949  -0.0525631420765
 C3 0.685853 0.572589 0.01990  -0.0525631420765
 C3 0.353232 0.518359 0.98569  -0.0525631420765
 C3 0.851943 0.518162 0.98605  -0.0525631420765
 C1 0.164338 0.078391 0.09969  0.70880852459
 C1 0.664356 0.078791 0.09961  0.70880852459
 C2 0.204027 0.13576 0.15867  -0.129254808743
 C2 0.703921 0.136401 0.15852  -0.129254808743
 C3 0.136183 0.192899 0.19166  -0.0525631420765
 C3 0.636032 0.193768 0.19129  -0.0525631420765
 C3 0.173693 0.244759 0.2472  -0.0525631420765
 C3 0.673458 0.245838 0.24677  -0.0525631420765
 C2 0.279446 0.238695 0.27158  -0.129254808743
 C2 0.779221 0.24 0.27118  -0.129254808743
 C3 0.347265 0.181466 0.23865  -0.0525631420765
 C3 0.847092 0.182575 0.23845  -0.0525631420765
 C3 0.310212 0.131533 0.18232  -0.0525631420765
 C3 0.810101 0.132349 0.18223  -0.0525631420765
 C1 0.320422 0.290257 0.33337  0.70880852459
 C1 0.819828 0.291768 0.33296  0.70880852459
 C1 0.163788 0.188143 0.48671  0.70880852459
 C1 0.66544 0.188427 0.48670  0.70880852459
 C2 0.207885 0.09115 0.49472  -0.129254808743
 C2 0.70892 0.091346 0.49472  -0.129254808743
 C3 0.31141 0.073917 0.48071  -0.0525631420765
 C3 0.812056 0.07336 0.48030  -0.0525631420765
 C3 0.146009 0.016522 0.51429  -0.0525631420765
 C3 0.646345 0.017323 0.51444  -0.0525631420765
 O1 0.231845 0.456724 0.56344  -0.627464808743
 O1 0.732399 0.45651 0.56377  -0.627464808743
 O1 0.065345 0.432678 0.58825  -0.627464808743
 O1 0.565627 0.432193 0.58839  -0.627464808743
 O1 0.415218 0.229794 0.85509  -0.627464808743
 O1 0.916182 0.230135 0.85532  -0.627464808743
 O1 0.262403 0.148559 0.85794  -0.627464808743
 O1 0.763697 0.148417 0.85810  -0.627464808743
 O1 0.231054 0.2432 0.98897  -0.627464808743
 O1 0.729423 0.242999 0.98902  -0.627464808743
 O1 0.066905 0.3047 0.97511  -0.627464808743
 O1 0.565389 0.304734 0.97515  -0.627464808743
 O2 0.098808 0.620207 0.50691  -0.99593147541
 O2 0.598412 0.617984 0.50688  -0.99593147541
 O2 0.409793 0.583618 0.56542  -0.99593147541
 O2 0.909849 0.583791 0.56522  -0.99593147541
 O1 0.266342 0.955272 0.93670  -0.627464808743
 O1 0.766065 0.955458 0.93646  -0.627464808743
 O1 0.432893 0.933729 0.91143  -0.627464808743
 O1 0.932859 0.933808 0.91140  -0.627464808743
 O1 0.083719 0.731887 0.64426  -0.627464808743
 O1 0.583543 0.728486 0.64510  -0.627464808743
 O1 0.236171 0.650635 0.64157  -0.627464808743
 O1 0.737857 0.650454 0.64162  -0.627464808743
 O1 0.27106 0.743432 0.50883  -0.627464808743
 O1 0.76921 0.743204 0.50890  -0.627464808743
 O1 0.434617 0.80645 0.52506  -0.627464808743
 O1 0.93293 0.806154 0.52473  -0.627464808743
 O2 0.40037 0.118728 0.99330  -0.99593147541
 O2 0.90073 0.118821 0.99291  -0.99593147541
 O2 0.089577 0.082453 0.9343  -0.99593147541
 O2 0.588979 0.08266 0.93441  -0.99593147541
 O1 0.2661 0.543244 0.43650  -0.627464808743
 O1 0.765716 0.543485 0.43629  -0.627464808743
 O1 0.432701 0.567233 0.41186  -0.627464808743
 O1 0.932632 0.567644 0.41188  -0.627464808743
 O1 0.083338 0.769972 0.14472  -0.627464808743
 O1 0.583924 0.771209 0.1450  -0.627464808743
 O1 0.236024 0.851404 0.14198  -0.627464808743
 O1 0.737376 0.851444 0.1419  -0.627464808743
 O1 0.270359 0.756983 0.01091  -0.627464808743
 O1 0.768748 0.756837 0.01102  -0.627464808743
 O1 0.434384 0.695256 0.02486  -0.627464808743
 O1 0.93288 0.695278 0.02485  -0.627464808743
 O2 0.399112 0.379731 0.49320  -0.99593147541
 O2 0.899467 0.381945 0.49324  -0.99593147541
 O2 0.08811 0.416302 0.43469  -0.99593147541
 O2 0.588088 0.416233 0.4349  -0.99593147541
 O1 0.232889 0.044528 0.0632  -0.627464808743
 O1 0.733156 0.044808 0.06341  -0.627464808743
 O1 0.06624 0.0661 0.08847  -0.627464808743
 O1 0.566305 0.066189 0.08841  -0.627464808743
 O1 0.414336 0.268337 0.35575  -0.627464808743
 O1 0.914412 0.271584 0.35499  -0.627464808743
 O1 0.261698 0.349328 0.3584  -0.627464808743
 O1 0.760007 0.349539 0.35838  -0.627464808743
 O1 0.226822 0.256548 0.49124  -0.627464808743
 O1 0.72869 0.256697 0.4910  -0.627464808743
 O1 0.063289 0.193497 0.47498  -0.627464808743
 O1 0.564945 0.193803 0.47524  -0.627464808743
 O2 0.098875 0.881093 0.00698  -0.99593147541
 O2 0.598931 0.881643 0.0066  -0.99593147541
 O2 0.410193 0.917266 0.06574  -0.99593147541
 O2 0.909922 0.917533 0.06536  -0.99593147541
