#======================================================================

# CRYSTAL DATA

#----------------------------------------------------------------------

data_VESTA_phase_1


_pd_phase_name                         MOF
_cell_length_a                         25.57500
_cell_length_b                         12.77000
_cell_length_c                         17.71500
_cell_angle_alpha                      89.71700
_cell_angle_beta                       105.36300
_cell_angle_gamma                      90.19400
_symmetry_space_group_name_H-M         "P 1"
_symmetry_Int_Tables_number            1

loop_
_symmetry_equiv_pos_as_xyz
   "x, y, z"

loop_
   _atom_site_label
   _atom_site_fract_x
   _atom_site_fract_y
   _atom_site_fract_z
 _atom_site_charge
 Zn1 0.042571 0.743153 0.76641  1.12601573529
 Zn1 0.542562 0.743153 0.76641  1.12601573529
 Zn1 0.124486 0.937768 0.79073  1.12601573529
 Zn1 0.624478 0.937769 0.79073  1.12601573529
 Zn1 0.206609 0.247957 0.73477  1.12601573529
 Zn1 0.7066 0.247957 0.73477  1.12601573529
 Zn1 0.124667 0.439993 0.70925  1.12601573529
 Zn1 0.624657 0.439993 0.70925  1.12601573529
 Zn1 0.457327 0.256804 0.23365  1.12601573529
 Zn1 0.957318 0.256805 0.23365  1.12601573529
 Zn1 0.375372 0.062208 0.20936  1.12601573529
 Zn1 0.875363 0.062209 0.20936  1.12601573529
 Zn1 0.293351 0.752129 0.26517  1.12601573529
 Zn1 0.793343 0.75213 0.26517  1.12601573529
 Zn1 0.375286 0.559977 0.29073  1.12601573529
 Zn1 0.875275 0.559977 0.29073  1.12601573529
 C1 0.190436 0.689474 0.94529  -0.268010514706
 C1 0.690425 0.689473 0.94529  -0.268010514706
 C2 0.174201 0.667259 0.01312  0.198910735294
 C2 0.67419 0.667259 0.01312  0.198910735294
 C2 0.211508 0.631486 0.08058  0.198910735294
 C2 0.711498 0.631487 0.08058  0.198910735294
 C1 0.265311 0.613195 0.08132  -0.268010514706
 C1 0.7653 0.613194 0.08132  -0.268010514706
 C2 0.281172 0.63164 0.01288  0.198910735294
 C2 0.781162 0.631639 0.01288  0.198910735294
 C2 0.244587 0.67082 0.94609  0.198910735294
 C2 0.744577 0.67082 0.94609  0.198910735294
 C3 0.151691 0.739691 0.87609  0.762355735294
 C3 0.651681 0.73969 0.87609  0.762355735294
 C3 0.306311 0.580265 0.15473  0.762355735294
 C3 0.8063 0.580264 0.15473  0.762355735294
 C3 0.21863 0.084798 0.84042  0.762355735294
 C3 0.71862 0.084797 0.84042  0.762355735294
 C1 0.235433 0.040343 0.92249  -0.268010514706
 C1 0.735423 0.040342 0.92249  -0.268010514706
 C2 0.276287 0.965369 0.94573  0.198910735294
 C2 0.776277 0.965367 0.94573  0.198910735294
 C2 0.290054 0.926172 0.02215  0.198910735294
 C2 0.790043 0.92617 0.02215  0.198910735294
 C3 0.033805 0.918658 0.86644  0.762355735294
 C3 0.533797 0.918658 0.86644  0.762355735294
 C1 0.014703 0.958799 0.93439  -0.268010514706
 C1 0.514695 0.958794 0.93439  -0.268010514706
 C2 0.462899 0.999701 0.92661  0.198910735294
 C2 0.962895 0.999699 0.92661  0.198910735294
 C2 0.448442 0.039744 0.99130  0.198910735294
 C2 0.948436 0.03974 0.99130  0.198910735294
 C1 0.061032 0.191958 0.55346  -0.268010514706
 C1 0.561025 0.19196 0.55346  -0.268010514706
 C2 0.077671 0.16932 0.48628  0.198910735294
 C2 0.577666 0.169321 0.48628  0.198910735294
 C2 0.040827 0.132807 0.41880  0.198910735294
 C2 0.540822 0.132807 0.41880  0.198910735294
 C1 0.487003 0.113153 0.41774  -0.268010514706
 C1 0.986997 0.113154 0.41774  -0.268010514706
 C2 0.47095 0.131383 0.48597  0.198910735294
 C2 0.970946 0.131385 0.48597  0.198910735294
 C2 0.00694 0.172387 0.55229  0.198910735294
 C2 0.506932 0.172388 0.55229  0.198910735294
 C3 0.099088 0.24276 0.62260  0.762355735294
 C3 0.599079 0.242762 0.62260  0.762355735294
 C3 0.44599 0.079723 0.34456  0.762355735294
 C3 0.945982 0.079726 0.34456  0.762355735294
 C3 0.029896 0.584773 0.65914  0.762355735294
 C3 0.529887 0.584776 0.65914  0.762355735294
 C1 0.013396 0.540665 0.57724  -0.268010514706
 C1 0.513388 0.540668 0.5772  -0.268010514706
 C2 0.47184 0.466966 0.55310  0.198910735294
 C2 0.971835 0.466969 0.55310  0.198910735294
 C2 0.458659 0.427417 0.47706  0.198910735294
 C2 0.958652 0.42742 0.47706  0.198910735294
 C3 0.216235 0.424893 0.63591  0.762355735294
 C3 0.716223 0.424892 0.63591  0.762355735294
 C1 0.235267 0.463128 0.56716  -0.268010514706
 C1 0.735254 0.463128 0.56716  -0.268010514706
 C2 0.287165 0.502945 0.5734  0.198910735294
 C2 0.787152 0.502944 0.57343  0.198910735294
 C2 0.301373 0.538703 0.50711  0.198910735294
 C2 0.80136 0.538702 0.50711  0.198910735294
 C1 0.309505 0.310451 0.05470  -0.268010514706
 C1 0.809495 0.310451 0.05470  -0.268010514706
 C2 0.325742 0.33267 0.98687  0.198910735294
 C2 0.825731 0.332668 0.98687  0.198910735294
 C2 0.288441 0.368442 0.91940  0.198910735294
 C2 0.788431 0.368443 0.91940  0.198910735294
 C1 0.234633 0.386697 0.91865  -0.268010514706
 C1 0.734622 0.386699 0.91865  -0.268010514706
 C2 0.218766 0.368234 0.98709  0.198910735294
 C2 0.718756 0.368232 0.98709  0.198910735294
 C2 0.255353 0.329084 0.05389  0.198910735294
 C2 0.755343 0.329085 0.05389  0.198910735294
 C3 0.348226 0.260284 0.12394  0.762355735294
 C3 0.848214 0.260282 0.12394  0.762355735294
 C3 0.193643 0.41972 0.84526  0.762355735294
 C3 0.693632 0.419719 0.84526  0.762355735294
 C3 0.280854 0.915547 0.15952  0.762355735294
 C3 0.780844 0.915546 0.15952  0.762355735294
 C1 0.263782 0.960066 0.07743  -0.268010514706
 C1 0.763771 0.960065 0.07743  -0.268010514706
 C2 0.222995 0.035046 0.0542  0.198910735294
 C2 0.722985 0.035045 0.05420  0.198910735294
 C2 0.208909 0.074003 0.97767  0.198910735294
 C2 0.7089 0.074001 0.97767  0.198910735294
 C3 0.465962 0.081155 0.13359  0.762355735294
 C3 0.965955 0.081153 0.13359  0.762355735294
 C1 0.485096 0.041022 0.0656  -0.268010514706
 C1 0.98509 0.041021 0.06567  -0.268010514706
 C2 0.036921 0.0 0.07343  0.198910735294
 C2 0.536915 0.0 0.07343  0.198910735294
 C2 0.051355 0.960123 0.00874  0.198910735294
 C2 0.551349 0.960119 0.00874  0.198910735294
 C1 0.438935 0.808012 0.44652  -0.268010514706
 C1 0.938928 0.808014 0.44652  -0.268010514706
 C2 0.422299 0.830633 0.5137  0.198910735294
 C2 0.922293 0.830634 0.51371  0.198910735294
 C2 0.459145 0.867113 0.58119  0.198910735294
 C2 0.959139 0.867113 0.58119  0.198910735294
 C1 0.01297 0.886741 0.58226  -0.268010514706
 C1 0.512964 0.886742 0.58226  -0.268010514706
 C2 0.02902 0.86855 0.51403  0.198910735294
 C2 0.529015 0.868552 0.51403  0.198910735294
 C2 0.493033 0.827569 0.44770  0.198910735294
 C2 0.993025 0.827569 0.44770  0.198910735294
 C3 0.400869 0.757264 0.3773  0.762355735294
 C3 0.900859 0.757265 0.37736  0.762355735294
 C3 0.053951 0.920221 0.6554  0.762355735294
 C3 0.553945 0.920223 0.65545  0.762355735294
 C3 0.470069 0.415197 0.34088  0.762355735294
 C3 0.970061 0.415201 0.34088  0.762355735294
 C1 0.48658 0.459323 0.42277  -0.268010514706
 C1 0.986573 0.459323 0.42277  -0.268010514706
 C2 0.028136 0.533019 0.44690  0.198910735294
 C2 0.528131 0.533021 0.44690  0.198910735294
 C2 0.041317 0.572569 0.52295  0.198910735294
 C2 0.54131 0.572572 0.52295  0.198910735294
 C3 0.283734 0.575107 0.3640  0.762355735294
 C3 0.783722 0.575107 0.36407  0.762355735294
 C1 0.264687 0.536853 0.43281  -0.268010514706
 C1 0.764675 0.536853 0.43281  -0.268010514706
 C2 0.212787 0.497038 0.42654  0.198910735294
 C2 0.712774 0.497038 0.42654  0.198910735294
 C2 0.198582 0.461277 0.49287  0.198910735294
 C2 0.69857 0.461277 0.49287  0.198910735294
 O1 0.16936 0.821891 0.85038  -0.606077598039
 O1 0.66935 0.82189 0.85038  -0.606077598039
 O1 0.10513 0.697888 0.85184  -0.606077598039
 O1 0.60512 0.697886 0.85184  -0.606077598039
 O2 0.318558 0.488024 0.171  -0.504649264706
 O2 0.818546 0.488023 0.171  -0.504649264706
 O3 0.330195 0.656377 0.20141  -0.676139264706
 O3 0.830183 0.656376 0.20141  -0.676139264706
 O1 0.177136 0.0498 0.79078  -0.606077598039
 O1 0.677125 0.049802 0.79078  -0.606077598039
 O1 0.246412 0.160926 0.82474  -0.606077598039
 O1 0.746402 0.160926 0.82474  -0.606077598039
 O1 0.074392 0.968045 0.85574  -0.606077598039
 O1 0.574383 0.968047 0.85574  -0.606077598039
 O1 0.50923 0.84045 0.8285  -0.606077598039
 O1 0.0 0.840454 0.82856  -0.606077598039
 O1 0.081019 0.324974 0.6469  -0.606077598039
 O1 0.581007 0.324974 0.64696  -0.606077598039
 O1 0.145445 0.201025 0.64838  -0.606077598039
 O1 0.645435 0.201027 0.6483  -0.606077598039
 O2 0.433383 0.987499 0.32850  -0.504649264706
 O2 0.933374 0.987502 0.3285  -0.504649264706
 O3 0.422125 0.155973 0.29764  -0.676139264706
 O3 0.922117 0.155975 0.29764  -0.676139264706
 O1 0.07192 0.551178 0.70860  -0.606077598039
 O1 0.571909 0.551176 0.70860  -0.606077598039
 O1 0.501759 0.659377 0.67529  -0.606077598039
 O1 0.0 0.659372 0.675  -0.606077598039
 O1 0.175934 0.474556 0.64652  -0.606077598039
 O1 0.675923 0.474558 0.64652  -0.606077598039
 O1 0.240612 0.346768 0.67441  -0.606077598039
 O1 0.7406 0.34677 0.67441  -0.606077598039
 O1 0.330533 0.178131 0.14967  -0.606077598039
 O1 0.830521 0.178131 0.14967  -0.606077598039
 O1 0.394784 0.302094 0.14822  -0.606077598039
 O1 0.894773 0.302093 0.14822  -0.606077598039
 O2 0.181456 0.511984 0.82851  -0.504649264706
 O2 0.681443 0.511983 0.82851  -0.504649264706
 O3 0.169716 0.343647 0.79856  -0.676139264706
 O3 0.669704 0.343646 0.79856  -0.676139264706
 O1 0.322373 0.950667 0.20905  -0.606077598039
 O1 0.822362 0.950669 0.20905  -0.606077598039
 O1 0.253316 0.839076 0.17527  -0.606077598039
 O1 0.753307 0.839075 0.17527  -0.606077598039
 O1 0.425318 0.031847 0.14418  -0.606077598039
 O1 0.925308 0.031851 0.14418  -0.606077598039
 O1 0.990559 0.159299 0.1715  -0.606077598039
 O1 0.490555 0.159301 0.1715  -0.606077598039
 O1 0.418908 0.675 0.35302  -0.606077598039
 O1 0.918896 0.675001 0.35302  -0.606077598039
 O1 0.354539 0.799092 0.3515  -0.606077598039
 O1 0.854529 0.799094 0.35152  -0.606077598039
 O2 0.066559 0.012453 0.67143  -0.504649264706
 O2 0.56655 0.012455 0.67143  -0.504649264706
 O3 0.077779 0.844017 0.70246  -0.676139264706
 O3 0.577771 0.844018 0.70246  -0.676139264706
 O1 0.428046 0.448795 0.2914  -0.606077598039
 O1 0.928035 0.448792 0.29142  -0.606077598039
 O1 0.998185 0.340568 0.32473  -0.606077598039
 O1 0.498182 0.340563 0.32473  -0.606077598039
 O1 0.324024 0.525406 0.35346  -0.606077598039
 O1 0.824012 0.525407 0.35346  -0.606077598039
 O1 0.259387 0.653272 0.32561  -0.606077598039
 O1 0.759376 0.653274 0.32561  -0.606077598039
 F1 0.122827 0.684444 0.01570  -0.125430514706
 F1 0.622815 0.684443 0.01570  -0.125430514706
 F1 0.195619 0.617573 0.14684  -0.125430514706
 F1 0.695611 0.617573 0.14684  -0.125430514706
 F1 0.333038 0.613367 0.01234  -0.125430514706
 F1 0.833028 0.613366 0.01234  -0.125430514706
 F1 0.262102 0.688966 0.88213  -0.125430514706
 F1 0.762094 0.688967 0.88213  -0.125430514706
 F1 0.302092 0.92915 0.89417  -0.125430514706
 F1 0.802085 0.929151 0.89418  -0.125430514706
 F1 0.329389 0.853377 0.04333  -0.125430514706
 F1 0.829378 0.853376 0.04333  -0.125430514706
 F1 0.4267 0.004151 0.85602  -0.125430514706
 F1 0.926695 0.004152 0.85602  -0.125430514706
 F1 0.398216 0.079817 0.98101  -0.125430514706
 F1 0.898211 0.079817 0.98101  -0.125430514706
 F1 0.129112 0.186816 0.48423  -0.125430514706
 F1 0.629107 0.186817 0.48423  -0.125430514706
 F1 0.057488 0.119692 0.35321  -0.125430514706
 F1 0.557482 0.119691 0.35321  -0.125430514706
 F1 0.419446 0.111084 0.48733  -0.125430514706
 F1 0.919443 0.111082 0.48733  -0.125430514706
 F1 0.488892 0.191168 0.61551  -0.125430514706
 F1 0.988885 0.191166 0.61551  -0.125430514706
 F1 0.444547 0.431469 0.60330  -0.125430514706
 F1 0.944541 0.431468 0.60330  -0.125430514706
 F1 0.418309 0.356141 0.4561  -0.125430514706
 F1 0.918301 0.356145 0.45616  -0.125430514706
 F1 0.323715 0.510614 0.64360  -0.125430514706
 F1 0.823697 0.510614 0.64360  -0.125430514706
 F1 0.351609 0.577973 0.51574  -0.125430514706
 F1 0.851596 0.577973 0.51574  -0.125430514706
 F1 0.377118 0.315525 0.98430  -0.125430514706
 F1 0.877106 0.315526 0.98430  -0.125430514706
 F1 0.30436 0.3824 0.85317  -0.125430514706
 F1 0.804352 0.3824 0.85317  -0.125430514706
 F1 0.166916 0.386607 0.98765  -0.125430514706
 F1 0.666907 0.386608 0.98765  -0.125430514706
 F1 0.237873 0.311017 0.11789  -0.125430514706
 F1 0.737865 0.311019 0.11789  -0.125430514706
 F1 0.197603 0.071133 0.10617  -0.125430514706
 F1 0.697596 0.071135 0.10617  -0.125430514706
 F1 0.169094 0.146121 0.95651  -0.125430514706
 F1 0.669087 0.146124 0.95651  -0.125430514706
 F1 0.073222 0.995851 0.14396  -0.125430514706
 F1 0.573216 0.995851 0.14396  -0.125430514706
 F1 0.101594 0.920146 0.01901  -0.125430514706
 F1 0.601587 0.920142 0.01901  -0.125430514706
 F1 0.370859 0.813153 0.51575  -0.125430514706
 F1 0.870853 0.813155 0.5157  -0.125430514706
 F1 0.442491 0.880273 0.64678  -0.125430514706
 F1 0.942485 0.880273 0.64678  -0.125430514706
 F1 0.080518 0.88889 0.51266  -0.125430514706
 F1 0.580514 0.888888 0.51266  -0.125430514706
 F1 0.011093 0.808806 0.38448  -0.125430514706
 F1 0.511086 0.808805 0.38448  -0.125430514706
 F1 0.055438 0.568504 0.39670  -0.125430514706
 F1 0.555432 0.568504 0.39670  -0.125430514706
 F1 0.081668 0.64384 0.54384  -0.125430514706
 F1 0.58166 0.643845 0.54384  -0.125430514706
 F1 0.176215 0.48937 0.356  -0.125430514706
 F1 0.676199 0.48937 0.356  -0.125430514706
 F1 0.148349 0.422003 0.48425  -0.125430514706
 F1 0.648336 0.422003 0.48425  -0.125430514706
