#======================================================================

# CRYSTAL DATA

#----------------------------------------------------------------------

data_VESTA_phase_1


_pd_phase_name                         MOF
_cell_length_a                         23.17300
_cell_length_b                         23.13200
_cell_length_c                         22.87600
_cell_angle_alpha                      89.92300
_cell_angle_beta                       90.03800
_cell_angle_gamma                      119.76800
_symmetry_space_group_name_H-M         "P 1"
_symmetry_Int_Tables_number            1

loop_
_symmetry_equiv_pos_as_xyz
   "x, y, z"

loop_
   _atom_site_label
   _atom_site_fract_x
   _atom_site_fract_y
   _atom_site_fract_z
 _atom_site_charge
 Cd1 0.26104 0.380828 0.9168  1.09234666667
 Cd1 0.261041 0.88082 0.91684  1.09234666667
 Cd1 0.76103 0.380829 0.91684  1.09234666667
 Cd1 0.761031 0.88082 0.91684  1.09234666667
 Cd1 0.118902 0.238636 0.5832  1.09234666667
 Cd1 0.118903 0.738626 0.58321  1.09234666667
 Cd1 0.618892 0.238636 0.5832  1.09234666667
 Cd1 0.618892 0.738626 0.58321  1.09234666667
 Cd1 0.119286 0.38063 0.25002  1.09234666667
 Cd1 0.119287 0.88062 0.25002  1.09234666667
 Cd1 0.619276 0.380631 0.25002  1.09234666667
 Cd1 0.619276 0.88062 0.25002  1.09234666667
 Cd1 0.238763 0.119029 0.41682  1.09234666667
 Cd1 0.238764 0.61902 0.41682  1.09234666667
 Cd1 0.738752 0.119029 0.41682  1.09234666667
 Cd1 0.738753 0.61902 0.41682  1.09234666667
 Cd1 0.38118 0.261243 0.08330  1.09234666667
 Cd1 0.38118 0.761234 0.08330  1.09234666667
 Cd1 0.881169 0.261243 0.08330  1.09234666667
 Cd1 0.881169 0.761233 0.08330  1.09234666667
 Cd1 0.380787 0.119518 0.74997  1.09234666667
 Cd1 0.380787 0.619508 0.74997  1.09234666667
 Cd1 0.880776 0.119519 0.74997  1.09234666667
 Cd1 0.880777 0.619509 0.74997  1.09234666667
 B1 0.323288 0.323294 0.00020  0.847906666667
 B1 0.323285 0.823277 0.  0.847906666667
 B1 0.823274 0.323286 0.  0.847906666667
 B1 0.823279 0.823284 0.00020  0.847906666667
 B1 0.999728 0.176813 0.66645  0.847906666667
 B1 0.999729 0.676803 0.66645  0.847906666667
 B1 0.499717 0.176812 0.6664  0.847906666667
 B1 0.499717 0.676803 0.66645  0.847906666667
 B1 0.176711 0.999704 0.33357  0.847906666667
 B1 0.176713 0.499695 0.33357  0.847906666667
 B1 0.676701 0.999704 0.33357  0.847906666667
 B1 0.676702 0.499696 0.33357  0.847906666667
 B1 0.176533 0.176486 0.50008  0.847906666667
 B1 0.176535 0.676477 0.50008  0.847906666667
 B1 0.676522 0.176487 0.50008  0.847906666667
 B1 0.676524 0.676476 0.50008  0.847906666667
 B1 0.00047 0.323257 0.16635  0.847906666667
 B1 0.000471 0.823247 0.16635  0.847906666667
 B1 0.500461 0.323257 0.16635  0.847906666667
 B1 0.500461 0.823247 0.16635  0.847906666667
 B1 0.323121 0.000355 0.83361  0.847906666667
 B1 0.323122 0.500345 0.83361  0.847906666667
 B1 0.823111 0.000355 0.83361  0.847906666667
 B1 0.823112 0.500345 0.83361  0.847906666667
 H1 0.427729 0.411956 0.88901  0.0528483333333
 H1 0.427732 0.911947 0.8890  0.0528483333333
 H1 0.92772 0.411956 0.88900  0.0528483333333
 H1 0.927722 0.911947 0.88900  0.0528483333333
 H1 0.41049 0.330051 0.9089  0.0528483333333
 H1 0.410491 0.830041 0.90891  0.0528483333333
 H1 0.91048 0.330051 0.90891  0.0528483333333
 H1 0.910481 0.830041 0.90891  0.0528483333333
 H1 0.451945 0.397228 0.95939  0.0528483333333
 H1 0.451948 0.897218 0.9593  0.0528483333333
 H1 0.951936 0.397228 0.95938  0.0528483333333
 H1 0.951938 0.897219 0.95938  0.0528483333333
 H1 0.161847 0.270866 0.03134  0.0528483333333
 H1 0.161847 0.770856 0.03134  0.0528483333333
 H1 0.661836 0.270866 0.03134  0.0528483333333
 H1 0.661837 0.770856 0.03134  0.0528483333333
 H1 0.223149 0.31377 0.08657  0.0528483333333
 H1 0.223152 0.813762 0.08656  0.0528483333333
 H1 0.723141 0.313772 0.08656  0.0528483333333
 H1 0.723143 0.813763 0.08656  0.0528483333333
 H1 0.21263 0.237643 0.05697  0.0528483333333
 H1 0.212631 0.737633 0.05697  0.0528483333333
 H1 0.712619 0.237643 0.05697  0.0528483333333
 H1 0.71262 0.737633 0.05697  0.0528483333333
 H1 0.483732 0.071963 0.55536  0.0528483333333
 H1 0.483734 0.571954 0.55536  0.0528483333333
 H1 0.983722 0.071963 0.55536  0.0528483333333
 H1 0.983723 0.571954 0.55536  0.0528483333333
 H1 0.419491 0.089639 0.57560  0.0528483333333
 H1 0.419492 0.58963 0.57560  0.0528483333333
 H1 0.91948 0.089639 0.57560  0.0528483333333
 H1 0.919482 0.589631 0.57560  0.0528483333333
 H1 0.445311 0.04772 0.62584  0.0528483333333
 H1 0.445311 0.547711 0.62584  0.0528483333333
 H1 0.9453 0.047721 0.62584  0.0528483333333
 H1 0.945301 0.547711 0.62584  0.0528483333333
 H1 0.108653 0.338341 0.69771  0.0528483333333
 H1 0.108655 0.838332 0.69771  0.0528483333333
 H1 0.608643 0.338341 0.69771  0.0528483333333
 H1 0.608643 0.838332 0.69771  0.0528483333333
 H1 0.090116 0.276457 0.75269  0.0528483333333
 H1 0.090117 0.776448 0.75269  0.0528483333333
 H1 0.590105 0.276457 0.75269  0.0528483333333
 H1 0.590106 0.776448 0.75269  0.0528483333333
 H1 0.025029 0.288063 0.72342  0.0528483333333
 H1 0.02503 0.788053 0.72342  0.0528483333333
 H1 0.525018 0.288062 0.72342  0.0528483333333
 H1 0.525019 0.788053 0.72342  0.0528483333333
 H1 0.088077 0.016667 0.22259  0.0528483333333
 H1 0.088078 0.516658 0.22259  0.0528483333333
 H1 0.588067 0.016667 0.22259  0.0528483333333
 H1 0.588068 0.516659 0.22259  0.0528483333333
 H1 0.169763 0.080624 0.24268  0.0528483333333
 H1 0.169764 0.580615 0.24268  0.0528483333333
 H1 0.669752 0.080624 0.24268  0.0528483333333
 H1 0.669753 0.580616 0.24268  0.0528483333333
 H1 0.10255 0.055159 0.29306  0.0528483333333
 H1 0.102552 0.55515 0.29306  0.0528483333333
 H1 0.60254 0.055159 0.29306  0.0528483333333
 H1 0.602541 0.55515 0.29306  0.0528483333333
 H1 0.229228 0.390022 0.36442  0.0528483333333
 H1 0.229229 0.890012 0.36442  0.0528483333333
 H1 0.729219 0.390023 0.36442  0.0528483333333
 H1 0.729218 0.890011 0.36442  0.0528483333333
 H1 0.186246 0.408503 0.41970  0.0528483333333
 H1 0.186247 0.908493 0.41970  0.0528483333333
 H1 0.686236 0.408504 0.41970  0.0528483333333
 H1 0.686236 0.908493 0.41970  0.0528483333333
 H1 0.262288 0.473736 0.39023  0.0528483333333
 H1 0.262289 0.973726 0.39023  0.0528483333333
 H1 0.762278 0.473737 0.39023  0.0528483333333
 H1 0.762278 0.973726 0.39023  0.0528483333333
 H1 0.072074 0.088054 0.38894  0.0528483333333
 H1 0.072076 0.588045 0.38894  0.0528483333333
 H1 0.572062 0.088054 0.38894  0.0528483333333
 H1 0.572067 0.588046 0.38895  0.0528483333333
 H1 0.089445 0.169958 0.40883  0.0528483333333
 H1 0.089446 0.669949 0.40883  0.0528483333333
 H1 0.589434 0.169958 0.4088  0.0528483333333
 H1 0.589435 0.669949 0.40883  0.0528483333333
 H1 0.047803 0.102649 0.45928  0.0528483333333
 H1 0.047806 0.602641 0.45928  0.0528483333333
 H1 0.54779 0.102649 0.4592  0.0528483333333
 H1 0.547797 0.602642 0.45928  0.0528483333333
 H1 0.338008 0.228987 0.53120  0.0528483333333
 H1 0.338009 0.728978 0.53120  0.0528483333333
 H1 0.837998 0.228988 0.53120  0.0528483333333
 H1 0.837999 0.728977 0.53121  0.0528483333333
 H1 0.276689 0.185997 0.58644  0.0528483333333
 H1 0.276692 0.685989 0.58645  0.0528483333333
 H1 0.776676 0.185995 0.58644  0.0528483333333
 H1 0.776685 0.685991 0.58645  0.0528483333333
 H1 0.287184 0.262141 0.55673  0.0528483333333
 H1 0.287185 0.762131 0.55673  0.0528483333333
 H1 0.787173 0.262141 0.55673  0.0528483333333
 H1 0.787174 0.76213 0.55673  0.0528483333333
 H1 0.016267 0.428168 0.05511  0.0528483333333
 H1 0.016268 0.928159 0.05511  0.0528483333333
 H1 0.516256 0.428168 0.05511  0.0528483333333
 H1 0.516257 0.928159 0.05511  0.0528483333333
 H1 0.080681 0.410697 0.07535  0.0528483333333
 H1 0.080682 0.910687 0.07535  0.0528483333333
 H1 0.580671 0.410697 0.07535  0.0528483333333
 H1 0.580671 0.910687 0.07535  0.0528483333333
 H1 0.054645 0.452282 0.12561  0.0528483333333
 H1 0.054646 0.952272 0.12561  0.0528483333333
 H1 0.554634 0.452282 0.12561  0.0528483333333
 H1 0.554635 0.952272 0.12561  0.0528483333333
 H1 0.391583 0.161676 0.19787  0.0528483333333
 H1 0.391583 0.661666 0.19787  0.0528483333333
 H1 0.891571 0.161676 0.19787  0.0528483333333
 H1 0.891572 0.661666 0.19787  0.0528483333333
 H1 0.410015 0.223452 0.25278  0.0528483333333
 H1 0.410015 0.723442 0.25278  0.0528483333333
 H1 0.910003 0.223452 0.25278  0.0528483333333
 H1 0.910004 0.723443 0.25278  0.0528483333333
 H1 0.475184 0.212005 0.22360  0.0528483333333
 H1 0.475184 0.711995 0.22360  0.0528483333333
 H1 0.975173 0.212005 0.22360  0.0528483333333
 H1 0.975174 0.711995 0.22360  0.0528483333333
 H1 0.411871 0.483562 0.72280  0.0528483333333
 H1 0.411872 0.983553 0.72280  0.0528483333333
 H1 0.91186 0.483563 0.72280  0.0528483333333
 H1 0.911862 0.983554 0.72280  0.0528483333333
 H1 0.330155 0.419606 0.74288  0.0528483333333
 H1 0.330156 0.919597 0.74288  0.0528483333333
 H1 0.830145 0.419606 0.74288  0.0528483333333
 H1 0.830146 0.919597 0.74288  0.0528483333333
 H1 0.397346 0.444916 0.7932  0.0528483333333
 H1 0.397347 0.944907 0.7932  0.0528483333333
 H1 0.897336 0.444917 0.7932  0.0528483333333
 H1 0.897337 0.944907 0.7932  0.0528483333333
 H1 0.270811 0.110136 0.86435  0.0528483333333
 H1 0.270811 0.610126 0.86435  0.0528483333333
 H1 0.770799 0.110135 0.86435  0.0528483333333
 H1 0.7708 0.610126 0.86435  0.0528483333333
 H1 0.313816 0.091427 0.91955  0.0528483333333
 H1 0.313816 0.591417 0.91955  0.0528483333333
 H1 0.813805 0.091426 0.91955  0.0528483333333
 H1 0.813806 0.591417 0.91955  0.0528483333333
 H1 0.237617 0.026361 0.89024  0.0528483333333
 H1 0.237617 0.526351 0.89024  0.0528483333333
 H1 0.737606 0.02636 0.89024  0.0528483333333
 H1 0.737607 0.526351 0.89024  0.0528483333333
 H1 0.016375 0.087855 0.77746  0.0528483333333
 H1 0.016376 0.587846 0.77746  0.0528483333333
 H1 0.516364 0.087855 0.77746  0.0528483333333
 H1 0.516365 0.587846 0.77746  0.0528483333333
 H1 0.080351 0.169644 0.75733  0.0528483333333
 H1 0.080352 0.669634 0.75733  0.0528483333333
 H1 0.58034 0.169643 0.75733  0.0528483333333
 H1 0.580341 0.669634 0.75733  0.0528483333333
 H1 0.054817 0.102337 0.70697  0.0528483333333
 H1 0.054817 0.602327 0.70697  0.0528483333333
 H1 0.554807 0.102336 0.70697  0.0528483333333
 H1 0.554806 0.602327 0.70697  0.0528483333333
 H1 0.390372 0.229548 0.63542  0.0528483333333
 H1 0.390372 0.729539 0.63542  0.0528483333333
 H1 0.89036 0.229548 0.63542  0.0528483333333
 H1 0.890363 0.72954 0.63542  0.0528483333333
 H1 0.408802 0.1864 0.58022  0.0528483333333
 H1 0.408802 0.68639 0.58022  0.0528483333333
 H1 0.90879 0.186399 0.58022  0.0528483333333
 H1 0.908792 0.68639 0.58022  0.0528483333333
 H1 0.473947 0.26258 0.60957  0.0528483333333
 H1 0.473948 0.762571 0.60957  0.0528483333333
 H1 0.973935 0.26258 0.60957  0.0528483333333
 H1 0.973938 0.762571 0.60957  0.0528483333333
 H1 0.41207 0.428181 0.11100  0.0528483333333
 H1 0.41207 0.92817 0.11100  0.0528483333333
 H1 0.912058 0.428179 0.11  0.0528483333333
 H1 0.912059 0.92817 0.11  0.0528483333333
 H1 0.330238 0.410665 0.09111  0.0528483333333
 H1 0.330239 0.910656 0.09111  0.0528483333333
 H1 0.830227 0.410666 0.09111  0.0528483333333
 H1 0.830228 0.910657 0.09111  0.0528483333333
 H1 0.397342 0.4525 0.0406  0.0528483333333
 H1 0.397343 0.952489 0.04065  0.0528483333333
 H1 0.89733 0.452498 0.04065  0.0528483333333
 H1 0.897332 0.952488 0.04065  0.0528483333333
 H1 0.270987 0.161531 0.96910  0.0528483333333
 H1 0.270988 0.661521 0.96910  0.0528483333333
 H1 0.770977 0.161531 0.96910  0.0528483333333
 H1 0.770979 0.661521 0.96910  0.0528483333333
 H1 0.314088 0.223283 0.91411  0.0528483333333
 H1 0.314089 0.723272 0.91411  0.0528483333333
 H1 0.814077 0.223281 0.91411  0.0528483333333
 H1 0.814078 0.723271 0.91411  0.0528483333333
 H1 0.237818 0.212376 0.94340  0.0528483333333
 H1 0.237819 0.712367 0.94340  0.0528483333333
 H1 0.737808 0.212376 0.94340  0.0528483333333
 H1 0.737809 0.712367 0.94340  0.0528483333333
 H1 0.072079 0.48368 0.44473  0.0528483333333
 H1 0.07208 0.983671 0.44473  0.0528483333333
 H1 0.572068 0.48368 0.44473  0.0528483333333
 H1 0.57207 0.983671 0.44473  0.0528483333333
 H1 0.089603 0.419258 0.42446  0.0528483333333
 H1 0.089604 0.919248 0.42446  0.0528483333333
 H1 0.589593 0.419258 0.42446  0.0528483333333
 H1 0.589593 0.919248 0.42446  0.0528483333333
 H1 0.047928 0.445329 0.37424  0.0528483333333
 H1 0.04793 0.94532 0.37424  0.0528483333333
 H1 0.547918 0.445329 0.37424  0.0528483333333
 H1 0.547919 0.94532 0.37424  0.0528483333333
 H1 0.338052 0.108578 0.30221  0.0528483333333
 H1 0.338054 0.608569 0.30221  0.0528483333333
 H1 0.838042 0.108577 0.30221  0.0528483333333
 H1 0.838043 0.608569 0.30221  0.0528483333333
 H1 0.276395 0.090195 0.24721  0.0528483333333
 H1 0.276396 0.590186 0.24721  0.0528483333333
 H1 0.776384 0.090195 0.24721  0.0528483333333
 H1 0.776385 0.590187 0.24721  0.0528483333333
 H1 0.287701 0.024841 0.2765  0.0528483333333
 H1 0.287702 0.524832 0.27657  0.0528483333333
 H1 0.78769 0.02484 0.2765  0.0528483333333
 H1 0.787692 0.524833 0.27657  0.0528483333333
 H1 0.483639 0.411995 0.27720  0.0528483333333
 H1 0.483639 0.911985 0.27720  0.0528483333333
 H1 0.983628 0.411995 0.27720  0.0528483333333
 H1 0.983629 0.911985 0.27720  0.0528483333333
 H1 0.419806 0.330182 0.25709  0.0528483333333
 H1 0.419806 0.830172 0.25709  0.0528483333333
 H1 0.919795 0.330182 0.25709  0.0528483333333
 H1 0.919796 0.830172 0.25709  0.0528483333333
 H1 0.445155 0.397591 0.20672  0.0528483333333
 H1 0.445156 0.897581 0.20672  0.0528483333333
 H1 0.945144 0.397591 0.20672  0.0528483333333
 H1 0.945145 0.897582 0.20672  0.0528483333333
 H1 0.109848 0.270618 0.13555  0.0528483333333
 H1 0.10985 0.770609 0.13555  0.0528483333333
 H1 0.609839 0.270619 0.13555  0.0528483333333
 H1 0.60984 0.770609 0.13555  0.0528483333333
 H1 0.091316 0.313805 0.08032  0.0528483333333
 H1 0.091317 0.813796 0.08032  0.0528483333333
 H1 0.591306 0.313806 0.08032  0.0528483333333
 H1 0.591307 0.813796 0.08032  0.0528483333333
 H1 0.026251 0.237532 0.10972  0.0528483333333
 H1 0.026252 0.737522 0.10972  0.0528483333333
 H1 0.526241 0.237532 0.10972  0.0528483333333
 H1 0.526242 0.737522 0.10972  0.0528483333333
 H1 0.087895 0.071619 0.61111  0.0528483333333
 H1 0.087896 0.57161 0.61111  0.0528483333333
 H1 0.587886 0.071621 0.61111  0.0528483333333
 H1 0.587885 0.571608 0.6111  0.0528483333333
 H1 0.169695 0.089098 0.59123  0.0528483333333
 H1 0.169696 0.589089 0.59123  0.0528483333333
 H1 0.669685 0.089098 0.59123  0.0528483333333
 H1 0.669685 0.58909 0.59123  0.0528483333333
 H1 0.102552 0.047307 0.5408  0.0528483333333
 H1 0.102553 0.547296 0.54083  0.0528483333333
 H1 0.602542 0.047309 0.54082  0.0528483333333
 H1 0.602541 0.547294 0.54083  0.0528483333333
 H1 0.229103 0.338349 0.46889  0.0528483333333
 H1 0.229104 0.83834 0.46890  0.0528483333333
 H1 0.729091 0.33835 0.46889  0.0528483333333
 H1 0.729094 0.838339 0.46890  0.0528483333333
 H1 0.186048 0.276823 0.41383  0.0528483333333
 H1 0.186048 0.776812 0.4138  0.0528483333333
 H1 0.686038 0.276825 0.41383  0.0528483333333
 H1 0.686036 0.776809 0.41384  0.0528483333333
 H1 0.262143 0.287412 0.44332  0.0528483333333
 H1 0.262145 0.787403 0.44332  0.0528483333333
 H1 0.762132 0.287412 0.44332  0.0528483333333
 H1 0.762134 0.787403 0.44333  0.0528483333333
 H1 0.42776 0.016069 0.94478  0.0528483333333
 H1 0.427761 0.516059 0.94478  0.0528483333333
 H1 0.927749 0.016069 0.94478  0.0528483333333
 H1 0.92775 0.516059 0.94478  0.0528483333333
 H1 0.410411 0.080659 0.92450  0.0528483333333
 H1 0.410411 0.580649 0.92450  0.0528483333333
 H1 0.9104 0.080659 0.92450  0.0528483333333
 H1 0.910401 0.580649 0.92450  0.0528483333333
 H1 0.451849 0.05449 0.87423  0.0528483333333
 H1 0.45185 0.554481 0.87423  0.0528483333333
 H1 0.951838 0.05449 0.87423  0.0528483333333
 H1 0.951839 0.554481 0.87423  0.0528483333333
 H1 0.161846 0.391469 0.80214  0.0528483333333
 H1 0.161847 0.89146 0.80214  0.0528483333333
 H1 0.661835 0.39147 0.80214  0.0528483333333
 H1 0.661837 0.89146 0.80214  0.0528483333333
 H1 0.223557 0.409935 0.74722  0.0528483333333
 H1 0.223558 0.909926 0.74722  0.0528483333333
 H1 0.723546 0.409935 0.74722  0.0528483333333
 H1 0.723547 0.909926 0.7472  0.0528483333333
 H1 0.212217 0.475246 0.77643  0.0528483333333
 H1 0.212219 0.975238 0.77643  0.0528483333333
 H1 0.712207 0.475247 0.77643  0.0528483333333
 H1 0.712208 0.975238 0.77643  0.0528483333333
 C1 0.478228 0.252125 0.96779  0.452681111111
 C1 0.47823 0.752116 0.96779  0.452681111111
 C1 0.978218 0.252125 0.96779  0.452681111111
 C1 0.978219 0.752115 0.96779  0.452681111111
 C2 0.413333 0.376226 0.92522  0.0237775
 C2 0.413336 0.876217 0.92522  0.0237775
 C2 0.913324 0.376227 0.92522  0.0237775
 C2 0.913326 0.876218 0.92522  0.0237775
 C2 0.211761 0.283653 0.04645  0.0237775
 C2 0.211762 0.783643 0.04645  0.0237775
 C2 0.711751 0.283652 0.04645  0.0237775
 C2 0.711752 0.783642 0.04645  0.0237775
 C1 0.274992 0.021934 0.63457  0.452681111111
 C1 0.274993 0.521925 0.63457  0.452681111111
 C1 0.774981 0.021935 0.63457  0.452681111111
 C1 0.774982 0.521925 0.63457  0.452681111111
 C2 0.462697 0.08648 0.59170  0.0237775
 C2 0.462698 0.586471 0.59170  0.0237775
 C2 0.962686 0.086481 0.59170  0.0237775
 C2 0.962687 0.586471 0.59170  0.0237775
 C2 0.071502 0.288407 0.71271  0.0237775
 C2 0.071504 0.788398 0.71271  0.0237775
 C2 0.571492 0.288407 0.71271  0.0237775
 C2 0.571492 0.788398 0.71271  0.0237775
 C1 0.247614 0.225229 0.30119  0.452681111111
 C1 0.247615 0.725219 0.30119  0.452681111111
 C1 0.747603 0.225229 0.30119  0.452681111111
 C1 0.747604 0.725219 0.30119  0.452681111111
 C2 0.123626 0.037525 0.25887  0.0237775
 C2 0.123627 0.537516 0.25887  0.0237775
 C2 0.623615 0.037525 0.25887  0.0237775
 C2 0.623616 0.537517 0.25887  0.0237775
 C2 0.216398 0.427229 0.37962  0.0237775
 C2 0.216399 0.927219 0.37962  0.0237775
 C2 0.716388 0.42723 0.37962  0.0237775
 C2 0.716388 0.927219 0.37962  0.0237775
 C1 0.021735 0.24793 0.46785  0.452681111111
 C1 0.021736 0.747919 0.46785  0.452681111111
 C1 0.521724 0.24793 0.46785  0.452681111111
 C1 0.521726 0.747919 0.46785  0.452681111111
 C2 0.086472 0.123689 0.42516  0.0237775
 C2 0.086474 0.62368 0.42516  0.0237775
 C2 0.58646 0.123688 0.42515  0.0237775
 C2 0.586465 0.623681 0.42516  0.0237775
 C2 0.288083 0.216155 0.54629  0.0237775
 C2 0.288084 0.716145 0.54629  0.0237775
 C2 0.788072 0.216156 0.54628  0.0237775
 C2 0.788074 0.716144 0.54629  0.0237775
 C1 0.224936 0.478071 0.13445  0.452681111111
 C1 0.224938 0.978061 0.13445  0.452681111111
 C1 0.724926 0.478071 0.13445  0.452681111111
 C1 0.724927 0.978061 0.13445  0.452681111111
 C2 0.037378 0.413634 0.09145  0.0237775
 C2 0.037379 0.913625 0.09145  0.0237775
 C2 0.537368 0.413635 0.09145  0.0237775
 C2 0.537369 0.913625 0.09145  0.0237775
 C2 0.428683 0.211606 0.21284  0.0237775
 C2 0.428683 0.711596 0.21284  0.0237775
 C2 0.928672 0.211606 0.21284  0.0237775
 C2 0.928673 0.711596 0.21284  0.0237775
 C1 0.25236 0.274781 0.80125  0.452681111111
 C1 0.252361 0.774772 0.80125  0.452681111111
 C1 0.752349 0.274781 0.80125  0.452681111111
 C1 0.75235 0.774771 0.80125  0.452681111111
 C2 0.376306 0.462648 0.75906  0.0237775
 C2 0.376308 0.962639 0.75906  0.0237775
 C2 0.876296 0.462649 0.75906  0.0237775
 C2 0.876297 0.96264 0.75906  0.0237775
 C2 0.28355 0.072815 0.87953  0.0237775
 C2 0.28355 0.572805 0.87953  0.0237775
 C2 0.783539 0.072815 0.87953  0.0237775
 C2 0.78354 0.572805 0.87953  0.0237775
 C1 0.224796 0.247216 0.69897  0.452681111111
 C1 0.224797 0.747207 0.69897  0.452681111111
 C1 0.724785 0.247216 0.69897  0.452681111111
 C1 0.724786 0.747207 0.69897  0.452681111111
 C2 0.037272 0.123491 0.74117  0.0237775
 C2 0.037273 0.623481 0.74117  0.0237775
 C2 0.537261 0.12349 0.74117  0.0237775
 C2 0.537261 0.623481 0.74117  0.0237775
 C2 0.427494 0.216642 0.62025  0.0237775
 C2 0.427495 0.716632 0.62025  0.0237775
 C2 0.927482 0.216642 0.62025  0.0237775
 C2 0.927485 0.716633 0.62025  0.0237775
 C1 0.25178 0.478076 0.0320  0.452681111111
 C1 0.251782 0.978067 0.03202  0.452681111111
 C1 0.75177 0.478076 0.03202  0.452681111111
 C1 0.751771 0.978067 0.03202  0.452681111111
 C2 0.376433 0.413728 0.07479  0.0237775
 C2 0.376433 0.913717 0.07479  0.0237775
 C2 0.876421 0.413727 0.07479  0.0237775
 C2 0.876422 0.913717 0.07479  0.0237775
 C2 0.283741 0.211584 0.95410  0.0237775
 C2 0.283743 0.711574 0.95410  0.0237775
 C2 0.783732 0.211583 0.95410  0.0237775
 C2 0.783733 0.711574 0.95410  0.0237775
 C1 0.021681 0.274728 0.36541  0.452681111111
 C1 0.021681 0.774718 0.36541  0.452681111111
 C1 0.52167 0.274728 0.36541  0.452681111111
 C1 0.521671 0.774718 0.36541  0.452681111111
 C2 0.086569 0.462622 0.40838  0.0237775
 C2 0.08657 0.962612 0.40838  0.0237775
 C2 0.586559 0.462622 0.40838  0.0237775
 C2 0.58656 0.962612 0.40838  0.0237775
 C2 0.288186 0.071472 0.28722  0.0237775
 C2 0.288188 0.571463 0.28722  0.0237775
 C2 0.788176 0.071472 0.28722  0.0237775
 C2 0.788177 0.571464 0.28722  0.0237775
 C1 0.275123 0.252654 0.19887  0.452681111111
 C1 0.275123 0.752644 0.19887  0.452681111111
 C1 0.775112 0.252654 0.19887  0.452681111111
 C1 0.775113 0.752644 0.19887  0.452681111111
 C2 0.462802 0.376438 0.24092  0.0237775
 C2 0.462803 0.876428 0.24092  0.0237775
 C2 0.962791 0.376438 0.24092  0.0237775
 C2 0.962792 0.876429 0.24092  0.0237775
 C2 0.072678 0.283489 0.12037  0.0237775
 C2 0.07268 0.783479 0.12037  0.0237775
 C2 0.572669 0.283489 0.12037  0.0237775
 C2 0.572669 0.783479 0.12037  0.0237775
 C1 0.248183 0.021847 0.53210  0.452681111111
 C1 0.248185 0.521837 0.53210  0.452681111111
 C1 0.748172 0.021848 0.53210  0.452681111111
 C1 0.748175 0.521837 0.532  0.452681111111
 C2 0.123502 0.086067 0.57489  0.0237775
 C2 0.123503 0.586057 0.57489  0.0237775
 C2 0.623493 0.086068 0.57489  0.0237775
 C2 0.623491 0.586055 0.57489  0.0237775
 C2 0.216261 0.288312 0.45390  0.0237775
 C2 0.216263 0.788303 0.45390  0.0237775
 C2 0.716249 0.288313 0.453  0.0237775
 C2 0.716252 0.788302 0.45390  0.0237775
 C1 0.478299 0.225164 0.8654  0.452681111111
 C1 0.478299 0.725155 0.8654  0.452681111111
 C1 0.978288 0.225164 0.8654  0.452681111111
 C1 0.978289 0.725155 0.8654  0.452681111111
 C2 0.413279 0.037243 0.90843  0.0237775
 C2 0.413281 0.537233 0.90843  0.0237775
 C2 0.913269 0.037243 0.90843  0.0237775
 C2 0.91327 0.537234 0.90843  0.0237775
 C2 0.211726 0.428604 0.78717  0.0237775
 C2 0.211727 0.928595 0.78717  0.0237775
 C2 0.711716 0.428605 0.78717  0.0237775
 C2 0.711717 0.928595 0.78717  0.0237775
 C3 0.013353 0.256264 0.91658  -0.499153333333
 C3 0.013353 0.756254 0.91658  -0.499153333333
 C3 0.513342 0.256264 0.91658  -0.499153333333
 C3 0.513343 0.756255 0.91658  -0.499153333333
 C1 0.083075 0.291391 0.91654  0.452681111111
 C1 0.083076 0.791383 0.91654  0.452681111111
 C1 0.583064 0.291392 0.91654  0.452681111111
 C1 0.583065 0.791383 0.91654  0.452681111111
 C3 0.243895 0.486759 0.58346  -0.499153333333
 C3 0.243896 0.98675 0.58346  -0.499153333333
 C3 0.743885 0.486759 0.58346  -0.499153333333
 C3 0.743885 0.986751 0.58346  -0.499153333333
 C1 0.208556 0.416914 0.58363  0.452681111111
 C1 0.208556 0.916905 0.58363  0.452681111111
 C1 0.708546 0.416914 0.58363  0.452681111111
 C1 0.708544 0.916905 0.58363  0.452681111111
 C3 0.243743 0.256477 0.24995  -0.499153333333
 C3 0.243744 0.756467 0.24995  -0.499153333333
 C3 0.743732 0.256477 0.24995  -0.499153333333
 C3 0.743733 0.756467 0.24995  -0.499153333333
 C1 0.208626 0.291387 0.24987  0.452681111111
 C1 0.208627 0.791378 0.24987  0.452681111111
 C1 0.708616 0.291388 0.24987  0.452681111111
 C1 0.708616 0.791378 0.24987  0.452681111111
 C3 0.486588 0.243694 0.41660  -0.499153333333
 C3 0.486589 0.743684 0.41660  -0.499153333333
 C3 0.986578 0.243694 0.41660  -0.499153333333
 C3 0.986578 0.743685 0.41660  -0.499153333333
 C1 0.416859 0.208547 0.41655  0.452681111111
 C1 0.41686 0.708537 0.41655  0.452681111111
 C1 0.916849 0.208546 0.41655  0.452681111111
 C1 0.916849 0.708538 0.41655  0.452681111111
 C3 0.256165 0.013183 0.08331  -0.499153333333
 C3 0.256165 0.513173 0.0833  -0.499153333333
 C3 0.756154 0.013183 0.0833  -0.499153333333
 C3 0.756155 0.513173 0.0833  -0.499153333333
 C1 0.291722 0.08302 0.08350  0.452681111111
 C1 0.291722 0.583011 0.08350  0.452681111111
 C1 0.791711 0.08302 0.08350  0.452681111111
 C1 0.791711 0.583011 0.08350  0.452681111111
 C3 0.256307 0.243597 0.75008  -0.499153333333
 C3 0.256308 0.743588 0.75008  -0.499153333333
 C3 0.756296 0.243597 0.75008  -0.499153333333
 C3 0.756298 0.743587 0.75008  -0.499153333333
 C1 0.291624 0.208888 0.74999  0.452681111111
 C1 0.291624 0.708879 0.74999  0.452681111111
 C1 0.791613 0.208888 0.7499  0.452681111111
 C1 0.791614 0.708879 0.74999  0.452681111111
 N1 0.448595 0.247826 0.01064  -0.481798888889
 N1 0.448596 0.747816 0.01064  -0.481798888889
 N1 0.948585 0.247826 0.01064  -0.481798888889
 N1 0.948586 0.747816 0.01064  -0.481798888889
 N1 0.300427 0.05167 0.67729  -0.481798888889
 N1 0.300427 0.55166 0.67729  -0.481798888889
 N1 0.800416 0.05167 0.67729  -0.481798888889
 N1 0.800417 0.55166 0.67729  -0.481798888889
 N1 0.251624 0.19971 0.34412  -0.481798888889
 N1 0.251625 0.6997 0.34412  -0.481798888889
 N1 0.751613 0.199709 0.34412  -0.481798888889
 N1 0.751614 0.699701 0.34412  -0.481798888889
 N1 0.051414 0.252353 0.51071  -0.481798888889
 N1 0.051415 0.752341 0.51071  -0.481798888889
 N1 0.551403 0.252353 0.51071  -0.481798888889
 N1 0.551405 0.752341 0.51071  -0.481798888889
 N1 0.199408 0.448472 0.17725  -0.481798888889
 N1 0.199409 0.948462 0.17725  -0.481798888889
 N1 0.699398 0.448473 0.17725  -0.481798888889
 N1 0.699398 0.948463 0.17725  -0.481798888889
 N1 0.248281 0.30027 0.84410  -0.481798888889
 N1 0.248282 0.800261 0.84410  -0.481798888889
 N1 0.74827 0.30027 0.84410  -0.481798888889
 N1 0.748271 0.800261 0.84410  -0.481798888889
 N1 0.199032 0.250992 0.65615  -0.481798888889
 N1 0.199034 0.750984 0.65615  -0.481798888889
 N1 0.699022 0.250993 0.65615  -0.481798888889
 N1 0.699023 0.750983 0.65615  -0.481798888889
 N1 0.247253 0.448464 0.98907  -0.481798888889
 N1 0.247255 0.948454 0.98907  -0.481798888889
 N1 0.747243 0.448463 0.98907  -0.481798888889
 N1 0.747245 0.948454 0.98907  -0.481798888889
 N1 0.051378 0.300096 0.32262  -0.481798888889
 N1 0.051378 0.800087 0.32262  -0.481798888889
 N1 0.551368 0.300097 0.32262  -0.481798888889
 N1 0.551368 0.800086 0.32262  -0.481798888889
 N1 0.300797 0.248631 0.15614  -0.481798888889
 N1 0.300798 0.748621 0.15614  -0.481798888889
 N1 0.800786 0.24863 0.15614  -0.481798888889
 N1 0.800787 0.748621 0.15614  -0.481798888889
 N1 0.252605 0.05139 0.48908  -0.481798888889
 N1 0.252607 0.55138 0.48908  -0.481798888889
 N1 0.752594 0.051391 0.48908  -0.481798888889
 N1 0.752597 0.551379 0.48908  -0.481798888889
 N1 0.448658 0.19972 0.82267  -0.481798888889
 N1 0.448658 0.69971 0.8226  -0.481798888889
 N1 0.948647 0.19972 0.82267  -0.481798888889
 N1 0.948648 0.699711 0.82267  -0.481798888889
 N1 0.141357 0.320774 0.91652  -0.481798888889
 N1 0.141358 0.820766 0.91652  -0.481798888889
 N1 0.641346 0.320776 0.91652  -0.481798888889
 N1 0.641347 0.820767 0.91652  -0.481798888889
 N1 0.178939 0.358533 0.58369  -0.481798888889
 N1 0.178939 0.858524 0.58369  -0.481798888889
 N1 0.678929 0.358533 0.58369  -0.481798888889
 N1 0.678927 0.858525 0.58369  -0.481798888889
 N1 0.179265 0.320563 0.24986  -0.481798888889
 N1 0.179266 0.820553 0.24986  -0.481798888889
 N1 0.679255 0.320564 0.24986  -0.481798888889
 N1 0.679255 0.820553 0.24986  -0.481798888889
 N1 0.358576 0.179144 0.41652  -0.481798888889
 N1 0.358577 0.679135 0.41652  -0.481798888889
 N1 0.858565 0.179143 0.41652  -0.481798888889
 N1 0.858565 0.679136 0.41652  -0.481798888889
 N1 0.321506 0.141397 0.08369  -0.481798888889
 N1 0.321505 0.641387 0.08369  -0.481798888889
 N1 0.821494 0.141397 0.08369  -0.481798888889
 N1 0.821494 0.641387 0.08369  -0.481798888889
 N1 0.321137 0.179867 0.74987  -0.481798888889
 N1 0.321137 0.679857 0.74987  -0.481798888889
 N1 0.821126 0.179867 0.74987  -0.481798888889
 N1 0.821127 0.679858 0.74987  -0.481798888889
 O1 0.35109 0.364389 0.94718  -0.520759166667
 O1 0.351093 0.864382 0.94718  -0.520759166667
 O1 0.851081 0.364392 0.94718  -0.520759166667
 O1 0.851083 0.864383 0.94718  -0.520759166667
 O1 0.257825 0.319574 0.  -0.520759166667
 O1 0.257824 0.819561 0.  -0.520759166667
 O1 0.757812 0.31957 0.  -0.520759166667
 O1 0.757813 0.819559 0.  -0.520759166667
 O1 0.013026 0.14868 0.61362  -0.520759166667
 O1 0.013028 0.64867 0.61362  -0.520759166667
 O1 0.513016 0.148679 0.61362  -0.520759166667
 O1 0.513016 0.64867 0.61362  -0.520759166667
 O1 0.060981 0.24239 0.66722  -0.520759166667
 O1 0.060983 0.742381 0.66722  -0.520759166667
 O1 0.560971 0.242389 0.66722  -0.520759166667
 O1 0.560971 0.74238 0.66722  -0.520759166667
 O1 0.135407 0.486797 0.2807  -0.520759166667
 O1 0.135408 0.986787 0.2807  -0.520759166667
 O1 0.635397 0.486798 0.2807  -0.520759166667
 O1 0.635397 0.986786 0.2807  -0.520759166667
 O1 0.180607 0.437909 0.33439  -0.520759166667
 O1 0.180608 0.937899 0.33439  -0.520759166667
 O1 0.680597 0.43791 0.33439  -0.520759166667
 O1 0.680598 0.937898 0.33439  -0.520759166667
 O1 0.14864 0.135335 0.44720  -0.520759166667
 O1 0.148643 0.635327 0.44720  -0.520759166667
 O1 0.648627 0.135333 0.44720  -0.520759166667
 O1 0.648634 0.63533 0.44720  -0.520759166667
 O1 0.242032 0.180279 0.50103  -0.520759166667
 O1 0.242032 0.680266 0.50103  -0.520759166667
 O1 0.742023 0.180283 0.50102  -0.520759166667
 O1 0.74202 0.680262 0.50104  -0.520759166667
 O1 0.487181 0.351287 0.11334  -0.520759166667
 O1 0.487182 0.851278 0.11334  -0.520759166667
 O1 0.98717 0.351287 0.11334  -0.520759166667
 O1 0.987171 0.851278 0.11334  -0.520759166667
 O1 0.439162 0.257687 0.167  -0.520759166667
 O1 0.439163 0.757677 0.167  -0.520759166667
 O1 0.939151 0.257687 0.167  -0.520759166667
 O1 0.939152 0.757677 0.167  -0.520759166667
 O1 0.364571 0.013359 0.78088  -0.520759166667
 O1 0.364572 0.513349 0.78088  -0.520759166667
 O1 0.86456 0.01336 0.78088  -0.520759166667
 O1 0.864561 0.51335 0.78088  -0.520759166667
 O1 0.319131 0.06208 0.83423  -0.520759166667
 O1 0.319132 0.56207 0.83423  -0.520759166667
 O1 0.819121 0.06208 0.83423  -0.520759166667
 O1 0.819122 0.56207 0.83423  -0.520759166667
 O1 0.48673 0.135445 0.71935  -0.520759166667
 O1 0.48673 0.635436 0.71935  -0.520759166667
 O1 0.986719 0.135445 0.71935  -0.520759166667
 O1 0.986721 0.635436 0.71935  -0.520759166667
 O1 0.438092 0.180796 0.66555  -0.520759166667
 O1 0.438092 0.680787 0.66555  -0.520759166667
 O1 0.938081 0.180797 0.66555  -0.520759166667
 O1 0.938082 0.680787 0.66555  -0.520759166667
 O1 0.364886 0.351504 0.0527  -0.520759166667
 O1 0.364884 0.851492 0.0527  -0.520759166667
 O1 0.864872 0.351501 0.0527  -0.520759166667
 O1 0.864872 0.851491 0.0527  -0.520759166667
 O1 0.319188 0.25753 0.99959  -0.520759166667
 O1 0.319192 0.757521 0.9995  -0.520759166667
 O1 0.819181 0.257531 0.99958  -0.520759166667
 O1 0.819183 0.757521 0.99958  -0.520759166667
 O1 0.148727 0.013013 0.38648  -0.520759166667
 O1 0.148728 0.513004 0.38648  -0.520759166667
 O1 0.648717 0.013012 0.38648  -0.520759166667
 O1 0.648718 0.513005 0.38648  -0.520759166667
 O1 0.242211 0.06104 0.33269  -0.520759166667
 O1 0.242212 0.561031 0.33269  -0.520759166667
 O1 0.7422 0.06104 0.33269  -0.520759166667
 O1 0.742201 0.561032 0.33269  -0.520759166667
 O1 0.013451 0.364718 0.21909  -0.520759166667
 O1 0.013452 0.864708 0.21909  -0.520759166667
 O1 0.513441 0.364718 0.21909  -0.520759166667
 O1 0.513441 0.864708 0.21909  -0.520759166667
 O1 0.062038 0.3192 0.16564  -0.520759166667
 O1 0.06204 0.81919 0.16564  -0.520759166667
 O1 0.562029 0.3192 0.16564  -0.520759166667
 O1 0.562029 0.81919 0.16564  -0.520759166667
 O1 0.13506 0.148314 0.5527  -0.520759166667
 O1 0.135058 0.648303 0.55277  -0.520759166667
 O1 0.635052 0.148316 0.5527  -0.520759166667
 O1 0.635044 0.6483 0.55277  -0.520759166667
 O1 0.180592 0.24224 0.49930  -0.520759166667
 O1 0.180596 0.742232 0.49931  -0.520759166667
 O1 0.680579 0.24224 0.49930  -0.520759166667
 O1 0.680589 0.742233 0.49931  -0.520759166667
 O1 0.351021 0.486998 0.88664  -0.520759166667
 O1 0.351022 0.986989 0.88664  -0.520759166667
 O1 0.85101 0.486998 0.88664  -0.520759166667
 O1 0.851012 0.986989 0.88664  -0.520759166667
 O1 0.257661 0.438966 0.83269  -0.520759166667
 O1 0.257662 0.938958 0.83269  -0.520759166667
 O1 0.75765 0.438967 0.83269  -0.520759166667
 O1 0.757652 0.938958 0.83269  -0.520759166667
