#======================================================================

# CRYSTAL DATA

#----------------------------------------------------------------------

data_VESTA_phase_1


_pd_phase_name                         MOF
_cell_length_a                         15.13100
_cell_length_b                         14.40600
_cell_length_c                         21.12900
_cell_angle_alpha                      90.02600
_cell_angle_beta                       90.03000
_cell_angle_gamma                      92.65600
_symmetry_space_group_name_H-M         "P 1"
_symmetry_Int_Tables_number            1

loop_
_symmetry_equiv_pos_as_xyz
   "x, y, z"

loop_
   _atom_site_label
   _atom_site_fract_x
   _atom_site_fract_y
   _atom_site_fract_z
 _atom_site_charge
 Cd1 0.244432 0.396606 0.5657  0.96315
 Cd1 0.744439 0.396601 0.56572  0.96315
 Cd1 0.255769 0.103422 0.06569  0.96315
 Cd1 0.755777 0.103416 0.06569  0.96315
 Cd1 0.255573 0.603375 0.43426  0.96315
 Cd1 0.755582 0.603368 0.4342  0.96315
 Cd1 0.244233 0.896555 0.93430  0.96315
 Cd1 0.744242 0.896555 0.93430  0.96315
 H1 0.255199 0.332932 0.90615  0.11117
 H1 0.755218 0.33294 0.90615  0.11117
 H1 0.245565 0.062752 0.81761  0.11117
 H1 0.745587 0.062758 0.81761  0.11117
 H1 0.240432 0.138194 0.71216  0.11117
 H1 0.740436 0.138197 0.71216  0.11117
 H1 0.414824 0.524813 0.61607  0.11117
 H1 0.914831 0.524813 0.61607  0.11117
 H1 0.083384 0.52692 0.61605  0.11117
 H1 0.583395 0.526916 0.61605  0.11117
 H1 0.075435 0.282511 0.5114  0.11117
 H1 0.575441 0.282502 0.51142  0.11117
 H1 0.406429 0.281594 0.51028  0.11117
 H1 0.90644 0.281597 0.51028  0.11117
 H1 0.245948 0.167444 0.40609  0.11117
 H1 0.745949 0.16742 0.40609  0.11117
 H1 0.251834 0.437479 0.31760  0.11117
 H1 0.751841 0.437456 0.31761  0.11117
 H1 0.257584 0.362081 0.21214  0.11117
 H1 0.757593 0.362057 0.21214  0.11117
 H1 0.085152 0.975377 0.11637  0.11117
 H1 0.585159 0.975384 0.11636  0.11117
 H1 0.416587 0.97332 0.11583  0.11117
 H1 0.916598 0.973306 0.11584  0.11117
 H1 0.425005 0.217589 0.01122  0.11117
 H1 0.925007 0.217563 0.01122  0.11117
 H1 0.093993 0.218279 0.01035  0.11117
 H1 0.594008 0.218298 0.01035  0.11117
 H1 0.244804 0.667043 0.09384  0.11117
 H1 0.744802 0.667032 0.09384  0.11117
 H1 0.254441 0.937224 0.18238  0.11117
 H1 0.75443 0.937213 0.18238  0.11117
 H1 0.259575 0.861783 0.28783  0.11117
 H1 0.759582 0.861773 0.28783  0.11117
 H1 0.085181 0.47516 0.38392  0.11117
 H1 0.585189 0.475161 0.38392  0.11117
 H1 0.416619 0.47306 0.38394  0.11117
 H1 0.916628 0.473054 0.38394  0.11117
 H1 0.424574 0.717473 0.48857  0.11117
 H1 0.924578 0.717462 0.48858  0.11117
 H1 0.093573 0.718376 0.48971  0.11117
 H1 0.593586 0.718381 0.48971  0.11117
 H1 0.254062 0.832546 0.59390  0.11117
 H1 0.754065 0.83254 0.59390  0.11117
 H1 0.248168 0.56251 0.68238  0.11117
 H1 0.748181 0.562505 0.68238  0.11117
 H1 0.242415 0.637908 0.78785  0.11117
 H1 0.742429 0.637904 0.78785  0.11117
 H1 0.414851 0.024597 0.88361  0.11117
 H1 0.914859 0.024591 0.88363  0.11117
 H1 0.083413 0.026655 0.88416  0.11117
 H1 0.583423 0.026668 0.88415  0.11117
 H1 0.074997 0.782385 0.98877  0.11117
 H1 0.575011 0.78241 0.98877  0.11117
 H1 0.406008 0.781695 0.98963  0.11117
 H1 0.90601 0.781675 0.98964  0.11117
 C1 0.243837 0.277265 0.74843  -0.12028
 C1 0.743841 0.277268 0.74843  -0.12028
 C2 0.247893 0.330441 0.80408  0.05227
 C2 0.747901 0.330446 0.80408  0.05227
 C3 0.251595 0.290287 0.86361  -0.0785466666667
 C3 0.751608 0.290294 0.86361  -0.0785466666667
 C1 0.250304 0.193179 0.86901  -0.12028
 C1 0.750325 0.193187 0.86902  -0.12028
 C3 0.246062 0.138233 0.81419  -0.0785466666667
 C3 0.746078 0.138239 0.81420  -0.0785466666667
 C3 0.243105 0.180338 0.75491  -0.0785466666667
 C3 0.743114 0.180342 0.75491  -0.0785466666667
 C4 0.242789 0.319159 0.68331  0.660395
 C4 0.742788 0.31916 0.68331  0.660395
 C4 0.253127 0.151406 0.93387  0.660395
 C4 0.753153 0.151411 0.93388  0.660395
 C5 0.451279 0.471539 0.59211  0.0883975
 C5 0.951287 0.47154 0.59211  0.0883975
 C5 0.043386 0.472501 0.59225  0.0883975
 C5 0.543395 0.472498 0.59225  0.0883975
 C5 0.038803 0.33687 0.5341  0.0883975
 C5 0.53881 0.336864 0.53411  0.0883975
 C5 0.446735 0.336277 0.53361  0.0883975
 C5 0.946745 0.33628 0.53361  0.0883975
 C1 0.256009 0.223097 0.24837  -0.12028
 C1 0.756015 0.223074 0.24837  -0.12028
 C2 0.252902 0.170035 0.30403  0.05227
 C2 0.75291 0.170011 0.30403  0.05227
 C3 0.248756 0.210093 0.36357  -0.0785466666667
 C3 0.748767 0.21007 0.36357  -0.0785466666667
 C1 0.248704 0.307128 0.36899  -0.12028
 C1 0.748701 0.307105 0.36899  -0.12028
 C3 0.2521 0.362035 0.31417  -0.0785466666667
 C3 0.752112 0.362012 0.31418  -0.0785466666667
 C3 0.255444 0.319953 0.25487  -0.0785466666667
 C3 0.755448 0.319929 0.25487  -0.0785466666667
 C4 0.257369 0.181031 0.1832  0.660395
 C4 0.757382 0.181013 0.18329  0.660395
 C4 0.245571 0.348758 0.43388  0.660395
 C4 0.745565 0.348743 0.43388  0.660395
 C5 0.048827 0.0286 0.09224  0.0883975
 C5 0.548835 0.028612 0.09223  0.0883975
 C5 0.456721 0.027699 0.09216  0.0883975
 C5 0.956729 0.027684 0.09217  0.0883975
 C5 0.461546 0.163229 0.03398  0.0883975
 C5 0.96155 0.163207 0.03399  0.0883975
 C5 0.053605 0.163692 0.03365  0.0883975
 C5 0.553618 0.16371 0.03364  0.0883975
 C1 0.256168 0.722712 0.25156  -0.12028
 C1 0.756178 0.722703 0.25156  -0.12028
 C2 0.25211 0.669535 0.19591  0.05227
 C2 0.75212 0.669526 0.19591  0.05227
 C3 0.248409 0.709688 0.13638  -0.0785466666667
 C3 0.748411 0.709677 0.13638  -0.0785466666667
 C1 0.2497 0.806796 0.1309  -0.12028
 C1 0.749694 0.806785 0.13097  -0.12028
 C3 0.253943 0.861743 0.18579  -0.0785466666667
 C3 0.75394 0.861732 0.18579  -0.0785466666667
 C3 0.256898 0.819638 0.24508  -0.0785466666667
 C3 0.756908 0.819629 0.24508  -0.0785466666667
 C4 0.257217 0.680817 0.31668  0.660395
 C4 0.757231 0.680811 0.31668  0.660395
 C4 0.246874 0.84857 0.06611  0.660395
 C4 0.746867 0.848561 0.06611  0.660395
 C5 0.048726 0.528433 0.40788  0.0883975
 C5 0.548734 0.528436 0.40788  0.0883975
 C5 0.456618 0.527478 0.40774  0.0883975
 C5 0.956627 0.527472 0.40774  0.0883975
 C5 0.461204 0.663112 0.46588  0.0883975
 C5 0.96121 0.663103 0.46589  0.0883975
 C5 0.053267 0.663692 0.46638  0.0883975
 C5 0.553279 0.663698 0.46638  0.0883975
 C1 0.243995 0.776891 0.75162  -0.12028
 C1 0.744004 0.776887 0.75162  -0.12028
 C2 0.247099 0.829955 0.69596  0.05227
 C2 0.747109 0.829949 0.69596  0.05227
 C3 0.251243 0.789896 0.63642  -0.0785466666667
 C3 0.751254 0.789891 0.63642  -0.0785466666667
 C1 0.251308 0.692861 0.63100  -0.12028
 C1 0.751313 0.692856 0.63100  -0.12028
 C3 0.247896 0.637953 0.68581  -0.0785466666667
 C3 0.747912 0.637948 0.6858  -0.0785466666667
 C3 0.244559 0.680036 0.74512  -0.0785466666667
 C3 0.74457 0.680032 0.74512  -0.0785466666667
 C4 0.242629 0.818954 0.81670  0.660395
 C4 0.742641 0.818951 0.81670  0.660395
 C4 0.254444 0.651227 0.56611  0.660395
 C4 0.754447 0.651223 0.56611  0.660395
 C5 0.451176 0.971374 0.90775  0.0883975
 C5 0.951183 0.971363 0.90776  0.0883975
 C5 0.04328 0.972275 0.90783  0.0883975
 C5 0.543291 0.97229 0.90782  0.0883975
 C5 0.038455 0.836744 0.96601  0.0883975
 C5 0.538469 0.836766 0.96600  0.0883975
 C5 0.446397 0.836282 0.96634  0.0883975
 C5 0.9464 0.836263 0.96635  0.0883975
 N1 0.246829 0.433143 0.80286  0.56309
 N1 0.746839 0.433148 0.80286  0.56309
 N2 0.403361 0.404054 0.56214  -0.250345
 N2 0.90337 0.404055 0.56214  -0.250345
 N2 0.086783 0.405606 0.56279  -0.250345
 N2 0.586791 0.4056 0.56279  -0.250345
 N1 0.25606 0.067584 0.3028  0.56309
 N1 0.756083 0.067559 0.30282  0.56309
 N2 0.096868 0.095954 0.06231  -0.250345
 N2 0.596878 0.095968 0.06230  -0.250345
 N2 0.413447 0.094579 0.06258  -0.250345
 N2 0.913453 0.094559 0.06259  -0.250345
 N1 0.253173 0.566833 0.19713  0.56309
 N1 0.753181 0.566823 0.19713  0.56309
 N2 0.096643 0.595918 0.43785  -0.250345
 N2 0.596653 0.595921 0.43785  -0.250345
 N2 0.413222 0.594376 0.43720  -0.250345
 N2 0.913229 0.594368 0.43720  -0.250345
 N1 0.243934 0.932406 0.69717  0.56309
 N1 0.743944 0.932401 0.69717  0.56309
 N2 0.403135 0.90402 0.93768  -0.250345
 N2 0.903141 0.904006 0.93769  -0.250345
 N2 0.086555 0.905395 0.9374  -0.250345
 N2 0.586566 0.905415 0.93740  -0.250345
 O1 0.256642 0.407168 0.67772  -0.6157275
 O1 0.756635 0.40717 0.67772  -0.6157275
 O1 0.229407 0.265579 0.63629  -0.6157275
 O1 0.729415 0.265577 0.636  -0.6157275
 O1 0.248646 0.063312 0.94129  -0.6157275
 O1 0.74868 0.063317 0.94129  -0.6157275
 O1 0.259347 0.207003 0.98090  -0.6157275
 O1 0.759358 0.207006 0.98090  -0.6157275
 O2 0.318511 0.476603 0.8111  -0.29564
 O2 0.818522 0.476607 0.81115  -0.29564
 O2 0.173717 0.46768 0.79724  -0.29564
 O2 0.673728 0.467688 0.79724  -0.29564
 O1 0.2439 0.092957 0.17774  -0.6157275
 O1 0.743902 0.092941 0.17774  -0.6157275
 O1 0.270532 0.234532 0.13625  -0.6157275
 O1 0.770538 0.234521 0.13625  -0.6157275
 O1 0.248055 0.436829 0.44137  -0.6157275
 O1 0.748066 0.436815 0.44137  -0.6157275
 O1 0.24093 0.293069 0.4808  -0.6157275
 O1 0.740944 0.293059 0.48088  -0.6157275
 O2 0.18532 0.022503 0.31129  -0.29564
 O2 0.685358 0.022452 0.311  -0.29564
 O2 0.330003 0.034961 0.29705  -0.29564
 O2 0.830036 0.034963 0.2970  -0.29564
 O1 0.243362 0.592809 0.32226  -0.6157275
 O1 0.743391 0.5928 0.3222  -0.6157275
 O1 0.270595 0.734398 0.363  -0.6157275
 O1 0.770606 0.734394 0.363  -0.6157275
 O1 0.251357 0.936663 0.05870  -0.6157275
 O1 0.751337 0.936656 0.05870  -0.6157275
 O1 0.240656 0.792972 0.01909  -0.6157275
 O1 0.740661 0.792967 0.01909  -0.6157275
 O2 0.181492 0.523371 0.18883  -0.29564
 O2 0.681496 0.523368 0.1888  -0.29564
 O2 0.326286 0.532297 0.20275  -0.29564
 O2 0.826291 0.53228 0.20275  -0.29564
 O1 0.256105 0.907027 0.82225  -0.6157275
 O1 0.756113 0.907024 0.82225  -0.6157275
 O1 0.229472 0.765449 0.86374  -0.6157275
 O1 0.729479 0.765447 0.86374  -0.6157275
 O1 0.251945 0.563155 0.55862  -0.6157275
 O1 0.751956 0.563151 0.55862  -0.6157275
 O1 0.259068 0.706912 0.51911  -0.6157275
 O1 0.75908 0.706909 0.51911  -0.6157275
 O2 0.314663 0.977504 0.68870  -0.29564
 O2 0.814678 0.977492 0.68870  -0.29564
 O2 0.169984 0.965011 0.70294  -0.29564
 O2 0.669997 0.965013 0.70294  -0.29564
