#======================================================================

# CRYSTAL DATA

#----------------------------------------------------------------------

data_VESTA_phase_1


_pd_phase_name                         MOF
_cell_length_a                         20.65200
_cell_length_b                         13.15700
_cell_length_c                         17.99400
_cell_angle_alpha                      79.40300
_cell_angle_beta                       86.85300
_cell_angle_gamma                      78.87600
_symmetry_space_group_name_H-M         "P 1"
_symmetry_Int_Tables_number            1

loop_
_symmetry_equiv_pos_as_xyz
   "x, y, z"

loop_
   _atom_site_label
   _atom_site_fract_x
   _atom_site_fract_y
   _atom_site_fract_z
 _atom_site_charge
 Cd1 0.466813 0.912028 0.79877  0.941004556213
 Cd1 0.966803 0.912026 0.79877  0.941004556213
 Cd1 0.03318 0.087969 0.20123  0.941004556213
 Cd1 0.533171 0.087975 0.2012  0.941004556213
 Cd2 0.249998 0.499999 0.50000  0.976544556213
 Cd2 0.749987 0.499998 0.50000  0.976544556213
 H1 0.289972 0.197933 0.69439  0.104428749761
 H1 0.789962 0.197932 0.69439  0.104428749761
 H1 0.223343 0.914136 0.80061  0.104428749761
 H1 0.723333 0.914134 0.80061  0.104428749761
 H1 0.082496 0.185971 0.70488  0.104428749761
 H1 0.582486 0.185973 0.70489  0.104428749761
 H1 0.102333 0.757223 0.73467  0.104428749761
 H1 0.602321 0.757219 0.73467  0.104428749761
 H1 0.096054 0.578974 0.6720  0.104428749761
 H1 0.59604 0.57897 0.67201  0.104428749761
 H1 0.40435 0.717069 0.73939  0.104428749761
 H1 0.904343 0.717063 0.73939  0.104428749761
 H1 0.417811 0.576307 0.64659  0.104428749761
 H1 0.917808 0.576303 0.64658  0.104428749761
 H1 0.499477 0.517177 0.62561  0.104428749761
 H1 0.999474 0.517174 0.62561  0.104428749761
 H1 0.036771 0.473619 0.80343  0.104428749761
 H1 0.536755 0.473624 0.80344  0.104428749761
 H1 0.032149 0.3139 0.89760  0.104428749761
 H1 0.532135 0.313904 0.89760  0.104428749761
 H1 0.384859 0.237115 0.76782  0.104428749761
 H1 0.88485 0.237117 0.7678  0.104428749761
 H1 0.385712 0.402542 0.67596  0.104428749761
 H1 0.885705 0.402544 0.6759  0.104428749761
 H1 0.469507 0.097273 0.85840  0.104428749761
 H1 0.969498 0.097272 0.85840  0.104428749761
 H1 0.406386 0.157741 0.91495  0.104428749761
 H1 0.906377 0.157741 0.91494  0.104428749761
 H1 0.095633 0.105645 0.89844  0.104428749761
 H1 0.595621 0.105648 0.89845  0.104428749761
 H1 0.140007 0.074919 0.04604  0.104428749761
 H1 0.639996 0.074926 0.04605  0.104428749761
 H1 0.432095 0.152673 0.04992  0.104428749761
 H1 0.932085 0.152668 0.04992  0.104428749761
 H1 0.210023 0.802062 0.30561  0.104428749761
 H1 0.710012 0.802059 0.30561  0.104428749761
 H1 0.276644 0.085866 0.19939  0.104428749761
 H1 0.776635 0.08586 0.19939  0.104428749761
 H1 0.417496 0.81404 0.2951  0.104428749761
 H1 0.917486 0.814032 0.29512  0.104428749761
 H1 0.397662 0.242782 0.26534  0.104428749761
 H1 0.897651 0.242777 0.26533  0.104428749761
 H1 0.403943 0.42103 0.32800  0.104428749761
 H1 0.903932 0.421025 0.32799  0.104428749761
 H1 0.095643 0.282928 0.26061  0.104428749761
 H1 0.595633 0.282933 0.26062  0.104428749761
 H1 0.082182 0.423689 0.35342  0.104428749761
 H1 0.582171 0.423694 0.35342  0.104428749761
 H1 0.000516 0.482818 0.37439  0.104428749761
 H1 0.500506 0.482824 0.37440  0.104428749761
 H1 0.463226 0.526377 0.19657  0.104428749761
 H1 0.963214 0.526373 0.19657  0.104428749761
 H1 0.467844 0.686097 0.10241  0.104428749761
 H1 0.967832 0.686094 0.10240  0.104428749761
 H1 0.115133 0.762881 0.23218  0.104428749761
 H1 0.615123 0.762886 0.23219  0.104428749761
 H1 0.114282 0.597452 0.32404  0.104428749761
 H1 0.614272 0.597458 0.32405  0.104428749761
 H1 0.030477 0.902725 0.1416  0.104428749761
 H1 0.530469 0.902729 0.14161  0.104428749761
 H1 0.093601 0.842263 0.08506  0.104428749761
 H1 0.593592 0.842265 0.08506  0.104428749761
 H1 0.404357 0.894351 0.10156  0.104428749761
 H1 0.904345 0.894348 0.10156  0.104428749761
 H1 0.359983 0.925075 0.95396  0.104428749761
 H1 0.859972 0.925073 0.95396  0.104428749761
 H1 0.067895 0.84733 0.95008  0.104428749761
 H1 0.567885 0.847333 0.95009  0.104428749761
 H1 0.422651 0.506522 0.48120  0.104428749761
 H1 0.922641 0.506519 0.48119  0.104428749761
 H1 0.017256 0.33447 0.54727  0.104428749761
 H1 0.517246 0.334474 0.54727  0.104428749761
 H1 0.32897 0.248592 0.56013  0.104428749761
 H1 0.828958 0.248591 0.56013  0.104428749761
 H1 0.003045 0.160059 0.63205  0.104428749761
 H1 0.503036 0.160063 0.63205  0.104428749761
 H1 0.424771 0.126714 0.64262  0.104428749761
 H1 0.924759 0.12671 0.64262  0.104428749761
 H1 0.015889 0.950687 0.63827  0.104428749761
 H1 0.51588 0.950691 0.63827  0.104428749761
 H1 0.451489 0.183713 0.44258  0.104428749761
 H1 0.951478 0.18371 0.44258  0.104428749761
 H1 0.327059 0.704139 0.51116  0.104428749761
 H1 0.827054 0.704131 0.51116  0.104428749761
 H1 0.255542 0.718782 0.73540  0.104428749761
 H1 0.755538 0.718786 0.735  0.104428749761
 H1 0.225348 0.540871 0.69000  0.104428749761
 H1 0.725338 0.540876 0.69000  0.104428749761
 H1 0.373663 0.829788 0.60515  0.104428749761
 H1 0.87366 0.829784 0.60514  0.104428749761
 H1 0.312287 0.862902 0.67360  0.104428749761
 H1 0.812289 0.862899 0.67360  0.104428749761
 H1 0.186804 0.910908 0.60547  0.104428749761
 H1 0.686801 0.910901 0.60547  0.104428749761
 H1 0.372491 0.954742 0.49471  0.104428749761
 H1 0.872482 0.954742 0.49470  0.104428749761
 H1 0.077344 0.493475 0.51880  0.104428749761
 H1 0.577333 0.493478 0.51881  0.104428749761
 H1 0.48274 0.665527 0.4527  0.104428749761
 H1 0.98273 0.665522 0.45273  0.104428749761
 H1 0.171026 0.751406 0.4398  0.104428749761
 H1 0.671016 0.751407 0.43988  0.104428749761
 H1 0.496951 0.839938 0.3679  0.104428749761
 H1 0.99694 0.839935 0.36795  0.104428749761
 H1 0.075225 0.873283 0.35738  0.104428749761
 H1 0.575216 0.873286 0.35739  0.104428749761
 H1 0.484107 0.04931 0.36173  0.104428749761
 H1 0.984096 0.049308 0.36173  0.104428749761
 H1 0.048508 0.816285 0.55742  0.104428749761
 H1 0.548498 0.816288 0.55742  0.104428749761
 H1 0.172935 0.295864 0.48883  0.104428749761
 H1 0.672921 0.295864 0.48884  0.104428749761
 H1 0.244455 0.281224 0.26460  0.104428749761
 H1 0.744439 0.281221 0.26461  0.104428749761
 H1 0.274648 0.459134 0.31000  0.104428749761
 H1 0.774634 0.459131 0.3100  0.104428749761
 H1 0.126333 0.170217 0.39485  0.104428749761
 H1 0.626318 0.170214 0.39486  0.104428749761
 H1 0.187709 0.137102 0.32640  0.104428749761
 H1 0.68769 0.137102 0.32640  0.104428749761
 H1 0.31319 0.089098 0.39453  0.104428749761
 H1 0.813176 0.089099 0.39453  0.104428749761
 H1 0.127504 0.045263 0.50529  0.104428749761
 H1 0.627495 0.045258 0.50530  0.104428749761
 C1 0.184806 0.203217 0.69483  -0.246685443787
 C1 0.684796 0.203218 0.69484  -0.246685443787
 C2 0.249975 0.155102 0.71153  -0.0778681710597
 C2 0.749965 0.155101 0.71153  -0.0778681710597
 C3 0.264236 0.050429 0.74969  -0.0361596104536
 C3 0.764226 0.050428 0.74969  -0.0361596104536
 C4 0.334311 0.996752 0.76663  0.651779556213
 C4 0.834302 0.99675 0.76663  0.651779556213
 C2 0.212647 0.995384 0.7712  -0.0778681710597
 C2 0.712637 0.995381 0.77122  -0.0778681710597
 C3 0.147125 0.043837 0.75544  -0.0361596104536
 C3 0.647115 0.043837 0.75545  -0.0361596104536
 C4 0.092401 0.982411 0.77798  0.651779556213
 C4 0.59239 0.98241 0.77798  0.651779556213
 C2 0.133371 0.148333 0.71727  -0.0778681710597
 C2 0.633361 0.148332 0.71727  -0.0778681710597
 C5 0.060553 0.723083 0.72474  -0.064200443787
 C5 0.560541 0.723081 0.72474  -0.064200443787
 C5 0.058175 0.636497 0.69326  -0.064200443787
 C5 0.558161 0.636495 0.69326  -0.064200443787
 C6 0.457142 0.705924 0.72873  0.129417056213
 C6 0.957134 0.705921 0.72872  0.129417056213
 C7 0.4664 0.542677 0.6713  -0.068990443787
 C7 0.966396 0.542675 0.67132  -0.068990443787
 C3 0.461794 0.449172 0.73303  -0.0361596104536
 C3 0.961788 0.449171 0.7330  -0.0361596104536
 C2 0.002209 0.423557 0.79596  -0.0778681710597
 C2 0.502194 0.42356 0.79596  -0.0778681710597
 C2 0.499928 0.332339 0.84907  -0.0778681710597
 C2 0.999921 0.332337 0.84907  -0.0778681710597
 C3 0.458209 0.264352 0.83916  -0.0361596104536
 C3 0.9582 0.264351 0.83915  -0.0361596104536
 C2 0.41709 0.290525 0.77628  -0.0778681710597
 C2 0.917081 0.290526 0.77627  -0.0778681710597
 C2 0.418348 0.382587 0.7242  -0.0778681710597
 C2 0.918341 0.382587 0.72426  -0.0778681710597
 C7 0.456355 0.160784 0.89151  -0.068990443787
 C7 0.956346 0.160783 0.8915  -0.068990443787
 C5 0.069188 0.110407 0.95173  -0.064200443787
 C5 0.569177 0.110411 0.95174  -0.064200443787
 C5 0.09027 0.095344 0.02461  -0.064200443787
 C5 0.590259 0.09535 0.02462  -0.064200443787
 C6 0.482702 0.136822 0.02917  0.129417056213
 C6 0.982693 0.136818 0.02916  0.129417056213
 C1 0.315188 0.796786 0.30517  -0.246685443787
 C1 0.815177 0.796782 0.30517  -0.246685443787
 C2 0.250019 0.844898 0.28848  -0.0778681710597
 C2 0.750008 0.844891 0.28847  -0.0778681710597
 C3 0.235755 0.949568 0.25031  -0.0361596104536
 C3 0.735745 0.949566 0.25031  -0.0361596104536
 C4 0.165679 0.00324 0.23337  0.651779556213
 C4 0.66567 0.003235 0.2333  0.651779556213
 C2 0.287341 0.004622 0.22878  -0.0778681710597
 C2 0.787333 0.004612 0.22877  -0.0778681710597
 C3 0.352864 0.956171 0.24456  -0.0361596104536
 C3 0.852855 0.956164 0.24456  -0.0361596104536
 C4 0.407586 0.017606 0.22203  0.651779556213
 C4 0.907578 0.017593 0.22202  0.651779556213
 C2 0.36662 0.851679 0.28274  -0.0778681710597
 C2 0.866611 0.851666 0.28273  -0.0778681710597
 C5 0.439442 0.27692 0.2752  -0.064200443787
 C5 0.939431 0.276915 0.27526  -0.064200443787
 C5 0.441821 0.363506 0.30674  -0.064200443787
 C5 0.941811 0.363501 0.30674  -0.064200443787
 C6 0.042851 0.294072 0.27127  0.129417056213
 C6 0.542841 0.294077 0.27128  0.129417056213
 C7 0.033593 0.457318 0.32868  -0.068990443787
 C7 0.533582 0.457323 0.32868  -0.068990443787
 C3 0.038198 0.550823 0.26697  -0.0361596104536
 C3 0.538189 0.550828 0.26698  -0.0361596104536
 C2 0.497788 0.57644 0.20405  -0.0778681710597
 C2 0.997776 0.576437 0.20404  -0.0778681710597
 C2 6.1e-05 0.667658 0.15093  -0.0778681710597
 C2 0.500052 0.667661 0.1509  -0.0778681710597
 C3 0.041781 0.735645 0.16085  -0.0361596104536
 C3 0.541772 0.735649 0.16085  -0.0361596104536
 C2 0.082902 0.709471 0.22372  -0.0778681710597
 C2 0.582892 0.709475 0.22373  -0.0778681710597
 C2 0.081645 0.617408 0.27574  -0.0778681710597
 C2 0.581635 0.617413 0.27574  -0.0778681710597
 C7 0.043632 0.839216 0.10850  -0.068990443787
 C7 0.543623 0.839219 0.10850  -0.068990443787
 C5 0.430802 0.88959 0.04827  -0.064200443787
 C5 0.93079 0.889587 0.04827  -0.064200443787
 C5 0.40972 0.904652 0.97539  -0.064200443787
 C5 0.90971 0.90465 0.97539  -0.064200443787
 C6 0.017287 0.863179 0.97084  0.129417056213
 C6 0.517277 0.863182 0.97084  0.129417056213
 C5 0.417946 0.42681 0.50669  -0.064200443787
 C5 0.917935 0.426807 0.50668  -0.064200443787
 C5 0.464925 0.342886 0.53756  -0.064200443787
 C5 0.964914 0.342882 0.53755  -0.064200443787
 C6 0.366852 0.29595 0.54591  0.129417056213
 C6 0.86684 0.295947 0.54591  0.129417056213
 C7 0.460573 0.154585 0.59990  -0.068990443787
 C7 0.960562 0.154582 0.59990  -0.068990443787
 C3 0.480966 0.076645 0.5467  -0.0361596104536
 C3 0.980954 0.076641 0.54675  -0.0361596104536
 C2 0.008447 0.97241 0.57751  -0.0778681710597
 C2 0.508438 0.972414 0.57752  -0.0778681710597
 C2 0.472809 0.103392 0.46843  -0.0778681710597
 C2 0.972797 0.103389 0.46843  -0.0778681710597
 C6 0.303381 0.682893 0.56573  0.129417056213
 C6 0.803376 0.682889 0.5657  0.129417056213
 C5 0.265477 0.68832 0.68308  -0.064200443787
 C5 0.765472 0.688322 0.68308  -0.064200443787
 C5 0.250917 0.601463 0.65994  -0.064200443787
 C5 0.75091 0.601465 0.65994  -0.064200443787
 C7 0.320293 0.840624 0.61742  -0.068990443787
 C7 0.820291 0.840621 0.61741  -0.068990443787
 C3 0.283765 0.923773 0.5570  -0.0361596104536
 C3 0.783759 0.923769 0.55705  -0.0361596104536
 C2 0.214747 0.949789 0.55928  -0.0778681710597
 C2 0.714741 0.949784 0.55928  -0.0778681710597
 C2 0.31871 0.974544 0.49726  -0.0778681710597
 C2 0.818701 0.974543 0.49725  -0.0778681710597
 C5 0.08205 0.573187 0.49332  -0.064200443787
 C5 0.582039 0.573191 0.49332  -0.064200443787
 C5 0.035071 0.657111 0.46245  -0.064200443787
 C5 0.53506 0.657115 0.46245  -0.064200443787
 C6 0.133144 0.704048 0.454  0.129417056213
 C6 0.633134 0.70405 0.45410  0.129417056213
 C7 0.039423 0.845412 0.40010  -0.068990443787
 C7 0.539414 0.845415 0.4001  -0.068990443787
 C3 0.019031 0.923353 0.45325  -0.0361596104536
 C3 0.519021 0.923356 0.45325  -0.0361596104536
 C2 0.491549 0.027588 0.42249  -0.0778681710597
 C2 0.991538 0.027585 0.42249  -0.0778681710597
 C2 0.027188 0.896606 0.53157  -0.0778681710597
 C2 0.527179 0.896609 0.5315  -0.0778681710597
 C6 0.196613 0.31711 0.43427  0.129417056213
 C6 0.696599 0.31711 0.43428  0.129417056213
 C5 0.234519 0.311685 0.31692  -0.064200443787
 C5 0.734503 0.311683 0.31692  -0.064200443787
 C5 0.249079 0.398542 0.34006  -0.064200443787
 C5 0.749064 0.398539 0.34006  -0.064200443787
 C7 0.179702 0.15938 0.38258  -0.068990443787
 C7 0.679686 0.159379 0.38259  -0.068990443787
 C3 0.21623 0.076232 0.44294  -0.0361596104536
 C3 0.716218 0.076231 0.44295  -0.0361596104536
 C2 0.285248 0.050217 0.44072  -0.0778681710597
 C2 0.785236 0.050216 0.44072  -0.0778681710597
 C2 0.181285 0.025462 0.50274  -0.0778681710597
 C2 0.681277 0.025457 0.50275  -0.0778681710597
 S1 0.165427 0.335522 0.64287  1.39535455621
 S1 0.665416 0.335523 0.6428  1.39535455621
 S1 0.334568 0.664476 0.35712  1.39535455621
 S1 0.834557 0.66447 0.35712  1.39535455621
 N1 0.997177 0.766007 0.74638  -0.390230443787
 N1 0.497165 0.766008 0.74639  -0.390230443787
 N2 0.492372 0.626865 0.69591  0.066822056213
 N2 0.992366 0.626863 0.6959  0.066822056213
 N2 0.500872 0.136853 0.95545  0.066822056213
 N2 0.0 0.136851 0.95544  0.066822056213
 N1 0.03588 0.11176 0.07250  -0.390230443787
 N1 0.535869 0.111766 0.07250  -0.390230443787
 N1 0.502818 0.233994 0.25362  -0.390230443787
 N1 0.0 0.233989 0.2536  -0.390230443787
 N2 0.00762 0.373131 0.30409  0.066822056213
 N2 0.50761 0.373136 0.30410  0.066822056213
 N2 0.999116 0.863146 0.04456  0.066822056213
 N2 0.499107 0.863149 0.04456  0.066822056213
 N1 0.464111 0.888238 0.92751  -0.390230443787
 N1 0.9641 0.888235 0.92750  -0.390230443787
 N1 0.356907 0.396618 0.51215  -0.390230443787
 N1 0.856895 0.396615 0.51215  -0.390230443787
 N2 0.431668 0.260563 0.56252  0.066822056213
 N2 0.931657 0.260559 0.56252  0.066822056213
 N1 0.274802 0.599168 0.58671  -0.390230443787
 N1 0.774794 0.599166 0.58671  -0.390230443787
 N2 0.299049 0.738953 0.62289  0.066822056213
 N2 0.799046 0.73895 0.62289  0.066822056213
 N1 0.143089 0.60338 0.48785  -0.390230443787
 N1 0.643078 0.603382 0.48786  -0.390230443787
 N2 0.068328 0.739435 0.43748  0.066822056213
 N2 0.568318 0.739438 0.4374  0.066822056213
 N1 0.225193 0.400835 0.413  -0.390230443787
 N1 0.725179 0.400834 0.41330  -0.390230443787
 N2 0.200946 0.261052 0.3771  0.066822056213
 N2 0.70093 0.261051 0.37711  0.066822056213
 O1 0.227714 0.351587 0.5998  -0.704505443787
 O1 0.727702 0.351589 0.59985  -0.704505443787
 O1 0.147013 0.405884 0.6983  -0.704505443787
 O1 0.647006 0.405881 0.69835  -0.704505443787
 O1 0.111445 0.333663 0.5924  -0.704505443787
 O1 0.611431 0.333666 0.59248  -0.704505443787
 O2 0.379355 0.053122 0.75629  -0.668650443787
 O2 0.879344 0.05312 0.75629  -0.668650443787
 O3 0.346875 0.897874 0.79040  -0.605062110454
 O3 0.846865 0.897872 0.79040  -0.605062110454
 O3 0.105178 0.890495 0.81547  -0.605062110454
 O3 0.605167 0.890496 0.81547  -0.605062110454
 O2 0.033911 0.029979 0.7562  -0.668650443787
 O2 0.5339 0.029981 0.75622  -0.668650443787
 O1 0.272283 0.648397 0.40015  -0.704505443787
 O1 0.772272 0.648398 0.40015  -0.704505443787
 O1 0.352977 0.594138 0.30163  -0.704505443787
 O1 0.852968 0.594122 0.30164  -0.704505443787
 O1 0.388554 0.666317 0.40753  -0.704505443787
 O1 0.888541 0.666319 0.4075  -0.704505443787
 O2 0.120639 0.946864 0.24371  -0.668650443787
 O2 0.620627 0.946865 0.24371  -0.668650443787
 O3 0.153113 0.102116 0.20960  -0.605062110454
 O3 0.653104 0.102113 0.20960  -0.605062110454
 O3 0.394808 0.109517 0.18453  -0.605062110454
 O3 0.894799 0.10951 0.18453  -0.605062110454
 O2 0.466077 0.970036 0.24379  -0.668650443787
 O2 0.966067 0.970027 0.2437  -0.668650443787
