#======================================================================

# CRYSTAL DATA

#----------------------------------------------------------------------

data_VESTA_phase_1


_pd_phase_name                         MOF
_cell_length_a                         20.45100
_cell_length_b                         24.81700
_cell_length_c                         15.84600
_cell_angle_alpha                      89.76000
_cell_angle_beta                       89.79700
_cell_angle_gamma                      96.67700
_symmetry_space_group_name_H-M         "P 1"
_symmetry_Int_Tables_number            1

loop_
_symmetry_equiv_pos_as_xyz
   "x, y, z"

loop_
   _atom_site_label
   _atom_site_fract_x
   _atom_site_fract_y
   _atom_site_fract_z
 _atom_site_charge
 Y1 0.079423 0.228738 0.89539  2.03980894737
 Y1 0.079397 0.728635 0.89529  2.03980894737
 Y1 0.579431 0.228631 0.89538  2.03980894737
 Y1 0.579237 0.72916 0.89573  2.03980894737
 Y1 0.170723 0.020364 0.39273  2.03980894737
 Y1 0.170637 0.520443 0.39309  2.03980894737
 Y1 0.670468 0.020859 0.39313  2.03980894737
 Y1 0.670727 0.520345 0.39289  2.03980894737
 Y1 0.420625 0.271039 0.10356  2.03980894737
 Y1 0.420953 0.77083 0.10389  2.03980894737
 Y1 0.920958 0.270841 0.10382  2.03980894737
 Y1 0.920613 0.771003 0.10462  2.03980894737
 Y1 0.329509 0.479094 0.60582  2.03980894737
 Y1 0.329457 0.979199 0.60560  2.03980894737
 Y1 0.829414 0.479468 0.60701  2.03980894737
 Y1 0.829474 0.979109 0.6057  2.03980894737
 H1 0.302351 0.209867 0.9556  0.102418947368
 H1 0.302349 0.709776 0.95586  0.102418947368
 H1 0.802396 0.209742 0.95586  0.102418947368
 H1 0.802433 0.710513 0.95644  0.102418947368
 H1 0.209542 0.096787 0.77511  0.102418947368
 H1 0.209626 0.596763 0.7751  0.102418947368
 H1 0.709628 0.096772 0.77515  0.102418947368
 H1 0.708991 0.596848 0.77717  0.102418947368
 H1 0.418813 0.106161 0.81512  0.102418947368
 H1 0.418904 0.606227 0.81517  0.102418947368
 H1 0.918901 0.106171 0.81513  0.102418947368
 H1 0.918306 0.606048 0.81660  0.102418947368
 H1 0.447812 0.03991 0.45560  0.102418947368
 H1 0.447739 0.539094 0.45484  0.102418947368
 H1 0.947728 0.039054 0.45465  0.102418947368
 H1 0.947753 0.539405 0.45593  0.102418947368
 H1 0.041032 0.153099 0.27352  0.102418947368
 H1 0.040951 0.653023 0.27410  0.102418947368
 H1 0.540946 0.153586 0.27383  0.102418947368
 H1 0.541063 0.653105 0.27368  0.102418947368
 H1 0.331389 0.14323 0.31397  0.102418947368
 H1 0.331605 0.643273 0.31448  0.102418947368
 H1 0.831599 0.14332 0.31445  0.102418947368
 H1 0.831499 0.643146 0.31487  0.102418947368
 H1 0.197869 0.290216 0.04230  0.102418947368
 H1 0.19773 0.789255 0.04348  0.102418947368
 H1 0.697697 0.28932 0.04346  0.102418947368
 H1 0.697844 0.790053 0.04359  0.102418947368
 H1 0.291103 0.403495 0.22225  0.102418947368
 H1 0.291088 0.903038 0.2226  0.102418947368
 H1 0.791078 0.403026 0.22270  0.102418947368
 H1 0.790647 0.903306 0.22389  0.102418947368
 H1 0.081708 0.393924 0.18322  0.102418947368
 H1 0.08173 0.893647 0.18328  0.102418947368
 H1 0.581752 0.39378 0.18321  0.102418947368
 H1 0.581461 0.894114 0.18349  0.102418947368
 H1 0.052167 0.460381 0.54405  0.102418947368
 H1 0.052027 0.959957 0.54350  0.102418947368
 H1 0.552114 0.460006 0.54370  0.102418947368
 H1 0.552049 0.960172 0.54348  0.102418947368
 H1 0.459181 0.346602 0.72601  0.102418947368
 H1 0.459034 0.846572 0.72543  0.102418947368
 H1 0.959019 0.346813 0.7259  0.102418947368
 H1 0.95916 0.846587 0.72591  0.102418947368
 H1 0.168494 0.356792 0.68529  0.102418947368
 H1 0.168633 0.856767 0.68512  0.102418947368
 H1 0.668684 0.356833 0.68541  0.102418947368
 H1 0.668478 0.856526 0.68445  0.102418947368
 C1 0.428118 0.185889 0.93280  0.853998947368
 C1 0.428169 0.685941 0.93281  0.853998947368
 C1 0.928196 0.185886 0.93281  0.853998947368
 C1 0.928087 0.686186 0.93339  0.853998947368
 C2 0.185977 0.176723 0.88443  0.683388947368
 C2 0.186009 0.676683 0.88447  0.683388947368
 C2 0.68604 0.176683 0.88447  0.683388947368
 C2 0.68588 0.677323 0.8859  0.683388947368
 C2 0.318938 0.053406 0.72556  0.683388947368
 C2 0.31901 0.553357 0.72575  0.683388947368
 C2 0.818999 0.053355 0.72568  0.683388947368
 C2 0.818537 0.553223 0.72768  0.683388947368
 C3 0.367346 0.160193 0.89104  -0.187254385965
 C3 0.367388 0.660211 0.89113  -0.187254385965
 C3 0.867418 0.16017 0.8911  -0.187254385965
 C3 0.867144 0.660447 0.89215  -0.187254385965
 C4 0.306289 0.177831 0.90975  0.0445022807018
 C4 0.306316 0.677804 0.90988  0.0445022807018
 C4 0.806351 0.177772 0.90987  0.0445022807018
 C4 0.8062 0.678285 0.91084  0.0445022807018
 C3 0.249673 0.155258 0.86749  -0.187254385965
 C3 0.249719 0.655234 0.86757  -0.187254385965
 C3 0.749745 0.155223 0.8675  -0.187254385965
 C3 0.749441 0.655614 0.86  -0.187254385965
 C4 0.25362 0.114337 0.80789  0.0445022807018
 C4 0.253693 0.614323 0.8079  0.0445022807018
 C4 0.753701 0.114315 0.80794  0.0445022807018
 C4 0.75316 0.614435 0.80972  0.0445022807018
 C3 0.314568 0.096435 0.78966  -0.187254385965
 C3 0.314653 0.596438 0.78975  -0.187254385965
 C3 0.814652 0.09642 0.78972  -0.187254385965
 C3 0.814033 0.596388 0.79150  -0.187254385965
 C4 0.371443 0.119648 0.83059  0.0445022807018
 C4 0.371519 0.619683 0.83065  0.0445022807018
 C4 0.871527 0.119641 0.83062  0.0445022807018
 C4 0.871016 0.619672 0.83208  0.0445022807018
 C1 0.321991 0.063245 0.43260  0.853998947368
 C1 0.322046 0.563066 0.43270  0.853998947368
 C1 0.822049 0.063097 0.43265  0.853998947368
 C1 0.822018 0.563212 0.43352  0.853998947368
 C2 0.064253 0.07244 0.38275  0.683388947368
 C2 0.064249 0.572662 0.38386  0.683388947368
 C2 0.564357 0.07344 0.38402  0.683388947368
 C2 0.564272 0.572459 0.38292  0.683388947368
 C2 0.431365 0.196702 0.22422  0.683388947368
 C2 0.431525 0.696535 0.2244  0.683388947368
 C2 0.931503 0.196556 0.22440  0.683388947368
 C2 0.931402 0.696366 0.22467  0.683388947368
 C3 0.382791 0.089292 0.3904  -0.187254385965
 C3 0.382878 0.588978 0.39041  -0.187254385965
 C3 0.882869 0.088978 0.39030  -0.187254385965
 C3 0.882842 0.589071 0.39114  -0.187254385965
 C4 0.443911 0.071954 0.40935  0.0445022807018
 C4 0.443911 0.571315 0.40887  0.0445022807018
 C4 0.943896 0.071284 0.40869  0.0445022807018
 C4 0.943893 0.571507 0.40976  0.0445022807018
 C3 0.500661 0.094804 0.36685  -0.187254385965
 C3 0.500664 0.594114 0.36630  -0.187254385965
 C3 0.0 0.09409 0.36613  -0.187254385965
 C3 0.0 0.594233 0.36707  -0.187254385965
 C4 0.496784 0.135804 0.30684  0.0445022807018
 C4 0.496878 0.635349 0.3066  0.0445022807018
 C4 0.996857 0.135335 0.30651  0.0445022807018
 C4 0.996785 0.635314 0.30717  0.0445022807018
 C3 0.435771 0.153474 0.28850  -0.187254385965
 C3 0.435935 0.653246 0.28864  -0.187254385965
 C3 0.935916 0.153253 0.28855  -0.187254385965
 C3 0.935827 0.653155 0.28902  -0.187254385965
 C4 0.37877 0.129912 0.32961  0.0445022807018
 C4 0.378934 0.62976 0.32984  0.0445022807018
 C4 0.87892 0.129773 0.32975  0.0445022807018
 C4 0.87885 0.629702 0.33031  0.0445022807018
 C1 0.072026 0.313873 0.06631  0.853998947368
 C1 0.072044 0.813396 0.0665  0.853998947368
 C1 0.571995 0.31357 0.0665  0.853998947368
 C1 0.571964 0.81404 0.06674  0.853998947368
 C2 0.314401 0.323515 0.11264  0.683388947368
 C2 0.314249 0.822577 0.11393  0.683388947368
 C2 0.814235 0.322591 0.11394  0.683388947368
 C2 0.814165 0.823159 0.11506  0.683388947368
 C2 0.181476 0.44681 0.27219  0.683388947368
 C2 0.181514 0.946627 0.27212  0.683388947368
 C2 0.681514 0.446654 0.27216  0.683388947368
 C2 0.681201 0.947005 0.27265  0.683388947368
 C3 0.132994 0.33984 0.10723  -0.187254385965
 C3 0.132945 0.83925 0.10778  -0.187254385965
 C3 0.632937 0.339364 0.10772  -0.187254385965
 C3 0.632863 0.839838 0.10800  -0.187254385965
 C4 0.19402 0.322288 0.08814  0.0445022807018
 C4 0.193924 0.821491 0.08905  0.0445022807018
 C4 0.693901 0.321555 0.0890  0.0445022807018
 C4 0.693901 0.822138 0.08938  0.0445022807018
 C3 0.250768 0.345004 0.12996  -0.187254385965
 C3 0.250661 0.844221 0.13088  -0.187254385965
 C3 0.750647 0.344248 0.13090  -0.187254385965
 C3 0.750506 0.844738 0.13165  -0.187254385965
 C4 0.246954 0.385937 0.18963  0.0445022807018
 C4 0.246914 0.88542 0.19010  0.0445022807018
 C4 0.74691 0.385436 0.19015  0.0445022807018
 C4 0.746594 0.885785 0.1910  0.0445022807018
 C3 0.186025 0.403809 0.20810  -0.187254385965
 C3 0.186018 0.90342 0.20835  -0.187254385965
 C3 0.686025 0.403469 0.20836  -0.187254385965
 C3 0.685683 0.903815 0.20895  -0.187254385965
 C4 0.129055 0.380477 0.16753  0.0445022807018
 C4 0.129043 0.880065 0.167  0.0445022807018
 C4 0.629054 0.380167 0.1677  0.0445022807018
 C4 0.62881 0.880557 0.16813  0.0445022807018
 C1 0.177934 0.43671 0.56664  0.853998947368
 C1 0.17792 0.936618 0.56632  0.853998947368
 C1 0.678003 0.436724 0.56660  0.853998947368
 C1 0.677878 0.936613 0.56607  0.853998947368
 C2 0.43569 0.426637 0.61576  0.683388947368
 C2 0.435631 0.926759 0.6155  0.683388947368
 C2 0.935687 0.427096 0.61609  0.683388947368
 C2 0.935647 0.926638 0.61569  0.683388947368
 C2 0.068608 0.303505 0.77546  0.683388947368
 C2 0.068751 0.803447 0.77540  0.683388947368
 C2 0.568761 0.303443 0.77551  0.683388947368
 C2 0.568628 0.803385 0.77497  0.683388947368
 C3 0.117116 0.410808 0.60897  -0.187254385965
 C3 0.117131 0.910633 0.60864  -0.187254385965
 C3 0.617215 0.41071 0.60892  -0.187254385965
 C3 0.617056 0.91058 0.60825  -0.187254385965
 C4 0.056048 0.428316 0.59028  0.0445022807018
 C4 0.056002 0.927993 0.58987  0.0445022807018
 C4 0.556079 0.428042 0.59008  0.0445022807018
 C4 0.555969 0.92806 0.58961  0.0445022807018
 C3 0.999331 0.405562 0.63295  -0.187254385965
 C3 0.999336 0.905233 0.6326  -0.187254385965
 C3 0.499393 0.405269 0.63281  -0.187254385965
 C3 0.499289 0.905273 0.63234  -0.187254385965
 C4 0.003185 0.364524 0.69292  0.0445022807018
 C4 0.003283 0.864303 0.69276  0.0445022807018
 C4 0.503319 0.36433 0.69290  0.0445022807018
 C4 0.503183 0.864256 0.69230  0.0445022807018
 C3 0.064156 0.346718 0.71111  -0.187254385965
 C3 0.0643 0.846598 0.7109  -0.187254385965
 C3 0.564334 0.346638 0.71115  -0.187254385965
 C3 0.564162 0.84646 0.71041  -0.187254385965
 C4 0.121128 0.370198 0.66983  0.0445022807018
 C4 0.121231 0.870096 0.66961  0.0445022807018
 C4 0.621288 0.370155 0.66986  0.0445022807018
 C4 0.6211 0.869929 0.66904  0.0445022807018
 O1 0.483887 0.173964 0.90743  -0.689931052632
 O1 0.483925 0.674042 0.90741  -0.689931052632
 O1 0.983964 0.173965 0.9074  -0.689931052632
 O1 0.98374 0.674188 0.90767  -0.689931052632
 O1 0.422571 0.219791 0.99227  -0.689931052632
 O1 0.422646 0.719876 0.99227  -0.689931052632
 O1 0.922666 0.219824 0.9922  -0.689931052632
 O1 0.92275 0.720136 0.99282  -0.689931052632
 O1 0.183135 0.213219 0.94103  -0.689931052632
 O1 0.183136 0.713199 0.94102  -0.689931052632
 O1 0.683167 0.213194 0.94103  -0.689931052632
 O1 0.683514 0.714928 0.94080  -0.689931052632
 O1 0.134457 0.160168 0.84107  -0.689931052632
 O1 0.134506 0.660104 0.8410  -0.689931052632
 O1 0.634541 0.160116 0.84107  -0.689931052632
 O1 0.63389 0.659829 0.84409  -0.689931052632
 O1 0.266522 0.030153 0.69098  -0.689931052632
 O1 0.266554 0.529975 0.69146  -0.689931052632
 O1 0.766548 0.030008 0.69133  -0.689931052632
 O1 0.766307 0.530141 0.69244  -0.689931052632
 O1 0.375462 0.039625 0.70426  -0.689931052632
 O1 0.375535 0.539653 0.70427  -0.689931052632
 O1 0.87552 0.039632 0.70423  -0.689931052632
 O1 0.87513 0.539259 0.70717  -0.689931052632
 O1 0.266136 0.074403 0.40675  -0.689931052632
 O1 0.266211 0.574317 0.40689  -0.689931052632
 O1 0.766214 0.074406 0.40692  -0.689931052632
 O1 0.766222 0.574203 0.40718  -0.689931052632
 O1 0.327661 0.029839 0.49304  -0.689931052632
 O1 0.327675 0.529709 0.49320  -0.689931052632
 O1 0.827681 0.029752 0.49316  -0.689931052632
 O1 0.827598 0.530233 0.49458  -0.689931052632
 O1 0.066441 0.034663 0.43784  -0.689931052632
 O1 0.066711 0.535381 0.43974  -0.689931052632
 O1 0.566924 0.036651 0.44064  -0.689931052632
 O1 0.566465 0.534711 0.43806  -0.689931052632
 O1 0.116369 0.09008 0.34059  -0.689931052632
 O1 0.116118 0.589889 0.34087  -0.689931052632
 O1 0.616129 0.090235 0.34056  -0.689931052632
 O1 0.616369 0.590051 0.34068  -0.689931052632
 O1 0.483689 0.219919 0.18867  -0.689931052632
 O1 0.483857 0.719776 0.1888  -0.689931052632
 O1 0.983838 0.219809 0.18883  -0.689931052632
 O1 0.983701 0.719638 0.18909  -0.689931052632
 O1 0.374806 0.210646 0.20371  -0.689931052632
 O1 0.374993 0.710549 0.20408  -0.689931052632
 O1 0.874973 0.21057 0.2040  -0.689931052632
 O1 0.874838 0.710327 0.20422  -0.689931052632
 O1 0.01639 0.325803 0.09214  -0.689931052632
 O1 0.016335 0.82516 0.0924  -0.689931052632
 O1 0.516332 0.325533 0.09220  -0.689931052632
 O1 0.516292 0.825978 0.09239  -0.689931052632
 O1 0.077312 0.279761 0.00706  -0.689931052632
 O1 0.077456 0.779556 0.00701  -0.689931052632
 O1 0.577328 0.279591 0.00710  -0.689931052632
 O1 0.577304 0.779987 0.00741  -0.689931052632
 O1 0.317102 0.286857 0.05630  -0.689931052632
 O1 0.316601 0.784957 0.05908  -0.689931052632
 O1 0.816579 0.284977 0.05907  -0.689931052632
 O1 0.816997 0.786519 0.05870  -0.689931052632
 O1 0.366055 0.340169 0.15575  -0.689931052632
 O1 0.366245 0.840113 0.15573  -0.689931052632
 O1 0.866239 0.340112 0.15573  -0.689931052632
 O1 0.865634 0.839731 0.15852  -0.689931052632
 O1 0.233699 0.469831 0.30755  -0.689931052632
 O1 0.23375 0.969698 0.30741  -0.689931052632
 O1 0.733744 0.469713 0.30748  -0.689931052632
 O1 0.733492 0.970054 0.30777  -0.689931052632
 O1 0.124885 0.46072 0.29281  -0.689931052632
 O1 0.12495 0.960646 0.29258  -0.689931052632
 O1 0.624945 0.460653 0.29265  -0.689931052632
 O1 0.62463 0.960992 0.29317  -0.689931052632
 O1 0.233728 0.425574 0.59276  -0.689931052632
 O1 0.23372 0.925621 0.59263  -0.689931052632
 O1 0.733838 0.425757 0.59285  -0.689931052632
 O1 0.733656 0.925674 0.59256  -0.689931052632
 O1 0.172374 0.469868 0.50582  -0.689931052632
 O1 0.172348 0.969681 0.50535  -0.689931052632
 O1 0.672358 0.469824 0.5057  -0.689931052632
 O1 0.672341 0.969667 0.50509  -0.689931052632
 O1 0.433124 0.463364 0.55904  -0.689931052632
 O1 0.433074 0.96355 0.55893  -0.689931052632
 O1 0.933199 0.464252 0.5600  -0.689931052632
 O1 0.933092 0.963382 0.55900  -0.689931052632
 O1 0.383932 0.409895 0.65927  -0.689931052632
 O1 0.383905 0.909993 0.65910  -0.689931052632
 O1 0.883845 0.409986 0.6592  -0.689931052632
 O1 0.883896 0.909904 0.6592  -0.689931052632
 O1 0.016313 0.280196 0.81102  -0.689931052632
 O1 0.016431 0.780184 0.81098  -0.689931052632
 O1 0.516436 0.280161 0.81105  -0.689931052632
 O1 0.516329 0.780311 0.81088  -0.689931052632
 O1 0.125175 0.289563 0.79590  -0.689931052632
 O1 0.125299 0.789518 0.79591  -0.689931052632
 O1 0.625307 0.2895 0.79600  -0.689931052632
 O1 0.625161 0.789401 0.7953  -0.689931052632
