#======================================================================

# CRYSTAL DATA

#----------------------------------------------------------------------

data_VESTA_phase_1


_pd_phase_name                         MOF
_cell_length_a                         16.64500
_cell_length_b                         16.81600
_cell_length_c                         27.26000
_cell_angle_alpha                      90.06900
_cell_angle_beta                       90.16000
_cell_angle_gamma                      89.40100
_symmetry_space_group_name_H-M         "P 1"
_symmetry_Int_Tables_number            1

loop_
_symmetry_equiv_pos_as_xyz
   "x, y, z"

loop_
   _atom_site_label
   _atom_site_fract_x
   _atom_site_fract_y
   _atom_site_fract_z
 _atom_site_charge
 Y1 0.507588 0.782774 0.57661  2.10166574468
 Y1 0.0 0.782761 0.57662  2.10166574468
 Y1 0.24731 0.283557 0.42321  2.10166574468
 Y1 0.747284 0.283566 0.42322  2.10166574468
 Y1 0.994766 0.219396 0.07638  2.10166574468
 Y1 0.495058 0.219734 0.07624  2.10166574468
 Y1 0.256238 0.718362 0.92399  2.10166574468
 Y1 0.756172 0.717953 0.92312  2.10166574468
 Y1 0.996409 0.220777 0.42374  2.10166574468
 Y1 0.496394 0.220756 0.42372  2.10166574468
 Y1 0.256652 0.720455 0.57694  2.10166574468
 Y1 0.756534 0.720438 0.57678  2.10166574468
 Y1 0.506657 0.780641 0.92446  2.10166574468
 Y1 0.0 0.780261 0.92464  2.10166574468
 Y1 0.245324 0.281462 0.07664  2.10166574468
 Y1 0.745345 0.281143 0.07663  2.10166574468
 H1 0.440731 0.462971 0.40413  0.0835990780142
 H1 0.940811 0.463043 0.40415  0.0835990780142
 H1 0.167412 0.523606 0.47073  0.0835990780142
 H1 0.66733 0.523667 0.47066  0.0835990780142
 H1 0.466412 0.68736 0.46461  0.0835990780142
 H1 0.966579 0.687396 0.46466  0.0835990780142
 H1 0.213069 0.588685 0.67259  0.0835990780142
 H1 0.712818 0.588399 0.67251  0.0835990780142
 H1 0.309455 0.957793 0.59809  0.0835990780142
 H1 0.809398 0.957775 0.59808  0.0835990780142
 H1 0.085902 0.027714 0.52953  0.0835990780142
 H1 0.585858 0.027724 0.52952  0.0835990780142
 H1 0.290688 0.182397 0.53674  0.0835990780142
 H1 0.790648 0.1824 0.53676  0.0835990780142
 H1 0.042529 0.089328 0.32556  0.0835990780142
 H1 0.542505 0.089325 0.32552  0.0835990780142
 H1 0.062217 0.536805 0.90565  0.0835990780142
 H1 0.561951 0.537361 0.9055  0.0835990780142
 H1 0.33446 0.477906 0.97056  0.0835990780142
 H1 0.834564 0.477606 0.97054  0.0835990780142
 H1 0.03397 0.31207 0.96467  0.0835990780142
 H1 0.534032 0.312575 0.96456  0.0835990780142
 H1 0.289983 0.414426 0.17364  0.0835990780142
 H1 0.789816 0.414379 0.17367  0.0835990780142
 H1 0.193414 0.044001 0.09751  0.0835990780142
 H1 0.693371 0.04457 0.09758  0.0835990780142
 H1 0.418543 0.975183 0.03114  0.0835990780142
 H1 0.917942 0.974064 0.03114  0.0835990780142
 H1 0.214634 0.819261 0.03637  0.0835990780142
 H1 0.712806 0.819707 0.03641  0.0835990780142
 H1 0.462476 0.911802 0.82678  0.0835990780142
 H1 0.96245 0.909955 0.82710  0.0835990780142
 H1 0.062867 0.540615 0.59592  0.0835990780142
 H1 0.562904 0.540586 0.59591  0.0835990780142
 H1 0.336218 0.479857 0.52952  0.0835990780142
 H1 0.836202 0.479869 0.52951  0.0835990780142
 H1 0.037151 0.316208 0.53549  0.0835990780142
 H1 0.537174 0.316193 0.53547  0.0835990780142
 H1 0.290134 0.415424 0.32536  0.0835990780142
 H1 0.790051 0.41543 0.325  0.0835990780142
 H1 0.194378 0.046052 0.40200  0.0835990780142
 H1 0.694398 0.046056 0.40202  0.0835990780142
 H1 0.417906 0.976104 0.47060  0.0835990780142
 H1 0.917958 0.97615 0.47059  0.0835990780142
 H1 0.213152 0.821389 0.46326  0.0835990780142
 H1 0.71326 0.821368 0.46322  0.0835990780142
 H1 0.461967 0.91264 0.67508  0.0835990780142
 H1 0.961964 0.912752 0.67540  0.0835990780142
 H1 0.439855 0.464353 0.09535  0.0835990780142
 H1 0.939496 0.464116 0.09528  0.0835990780142
 H1 0.167284 0.520709 0.02975  0.0835990780142
 H1 0.667485 0.520769 0.02954  0.0835990780142
 H1 0.469685 0.688142 0.03526  0.0835990780142
 H1 0.969454 0.688051 0.03539  0.0835990780142
 H1 0.214947 0.58378 0.82428  0.0835990780142
 H1 0.713589 0.582955 0.82419  0.0835990780142
 H1 0.307877 0.954954 0.9030  0.0835990780142
 H1 0.808394 0.955262 0.90258  0.0835990780142
 H1 0.08361 0.02476 0.97015  0.0835990780142
 H1 0.583824 0.024254 0.96958  0.0835990780142
 H1 0.288114 0.179803 0.96426  0.0835990780142
 H1 0.788299 0.179477 0.96460  0.0835990780142
 H1 0.042416 0.089183 0.17384  0.0835990780142
 H1 0.542404 0.089219 0.17380  0.0835990780142
 H1 0.061369 0.754609 0.75111  0.0835990780142
 H1 0.560914 0.754361 0.75084  0.0835990780142
 H1 0.190791 0.258328 0.24998  0.0835990780142
 H1 0.690774 0.258343 0.24997  0.0835990780142
 H1 0.441813 0.245729 0.24999  0.0835990780142
 H1 0.941759 0.245774 0.25002  0.0835990780142
 H1 0.31189 0.74485 0.75037  0.0835990780142
 H1 0.812494 0.743476 0.74983  0.0835990780142
 C1 0.479477 0.505836 0.42248  0.253764078014
 C1 0.97957 0.505886 0.42252  0.253764078014
 C2 0.058689 0.483888 0.43483  -0.272307588652
 C2 0.558615 0.483877 0.434  -0.272307588652
 C3 0.106246 0.538769 0.4596  0.100155744681
 C3 0.606151 0.538794 0.45962  0.100155744681
 C2 0.072595 0.612669 0.47184  -0.272307588652
 C2 0.572471 0.612685 0.47178  -0.272307588652
 C1 0.493616 0.629601 0.456  0.253764078014
 C1 0.99376 0.629628 0.45635  0.253764078014
 C4 0.117536 0.669472 0.50336  0.795205744681
 C4 0.617436 0.669509 0.50326  0.795205744681
 C4 0.0896 0.402245 0.42403  0.795205744681
 C4 0.589562 0.40224 0.42401  0.795205744681
 C1 0.189984 0.613362 0.7068  0.253764078014
 C1 0.689515 0.612977 0.70677  0.253764078014
 C2 0.133926 0.676313 0.70579  -0.272307588652
 C2 0.633578 0.676021 0.70563  -0.272307588652
 C4 0.106788 0.711559 0.65855  0.795205744681
 C4 0.606678 0.711473 0.65842  0.795205744681
 C1 0.272223 0.002146 0.57928  0.253764078014
 C1 0.772167 0.002137 0.57928  0.253764078014
 C2 0.192969 0.983317 0.56619  -0.272307588652
 C2 0.692917 0.983312 0.56618  -0.272307588652
 C3 0.14719 0.040181 0.54104  0.100155744681
 C3 0.647139 0.040192 0.54104  0.100155744681
 C2 0.182845 0.112609 0.52924  -0.272307588652
 C2 0.682814 0.112605 0.52924  -0.272307588652
 C1 0.261856 0.126059 0.54512  0.253764078014
 C1 0.761814 0.126062 0.54514  0.253764078014
 C4 0.13996 0.171767 0.49775  0.795205744681
 C4 0.639937 0.17177 0.4977  0.795205744681
 C4 0.161055 0.902497 0.57644  0.795205744681
 C4 0.661004 0.902489 0.57642  0.795205744681
 C1 0.065389 0.115253 0.29174  0.253764078014
 C1 0.565369 0.115263 0.29170  0.253764078014
 C2 0.119916 0.178306 0.29395  -0.272307588652
 C2 0.619892 0.17832 0.29393  -0.272307588652
 C4 0.146546 0.21211 0.34167  0.795205744681
 C4 0.646534 0.212108 0.34165  0.795205744681
 C1 0.022926 0.49414 0.92355  0.253764078014
 C1 0.522736 0.494653 0.92347  0.253764078014
 C2 0.443735 0.517155 0.93551  -0.272307588652
 C2 0.943925 0.516728 0.93554  -0.272307588652
 C3 0.395585 0.462375 0.95978  0.100155744681
 C3 0.895688 0.462012 0.95979  0.100155744681
 C2 0.428582 0.388071 0.9717  -0.272307588652
 C2 0.928603 0.387677 0.97175  -0.272307588652
 C1 0.007366 0.370181 0.95658  0.253764078014
 C1 0.507354 0.370668 0.95650  0.253764078014
 C4 0.383119 0.331293 0.00274  0.795205744681
 C4 0.883059 0.330992 0.00279  0.795205744681
 C4 0.413692 0.599226 0.92501  0.795205744681
 C4 0.914057 0.598869 0.92505  0.795205744681
 C1 0.31344 0.388757 0.20760  0.253764078014
 C1 0.81331 0.388743 0.20763  0.253764078014
 C2 0.369278 0.325686 0.20569  -0.272307588652
 C2 0.869174 0.325696 0.20573  -0.272307588652
 C4 0.39612 0.291556 0.15809  0.795205744681
 C4 0.896022 0.291524 0.15815  0.795205744681
 C1 0.231269 0.9998 0.07909  0.253764078014
 C1 0.730846 0.0 0.07913  0.253764078014
 C2 0.310614 0.019026 0.0667  -0.272307588652
 C2 0.8103 0.018709 0.06676  -0.272307588652
 C3 0.357159 0.96236 0.04206  0.100155744681
 C3 0.856456 0.96167 0.04205  0.100155744681
 C2 0.322141 0.889742 0.0298  -0.272307588652
 C2 0.820867 0.889314 0.0298  -0.272307588652
 C1 0.242995 0.875817 0.04  0.253764078014
 C1 0.741584 0.876033 0.04506  0.253764078014
 C4 0.365968 0.830976 0.99857  0.795205744681
 C4 0.863889 0.829858 0.99869  0.795205744681
 C4 0.342062 0.100015 0.07724  0.795205744681
 C4 0.842378 0.099434 0.07723  0.795205744681
 C1 0.439151 0.886333 0.79283  0.253764078014
 C1 0.939256 0.884765 0.79303  0.253764078014
 C2 0.383731 0.824031 0.7947  -0.272307588652
 C2 0.884135 0.822203 0.79460  -0.272307588652
 C4 0.357065 0.790781 0.84250  0.795205744681
 C4 0.857012 0.788076 0.84195  0.795205744681
 C1 0.0241 0.497749 0.5775  0.253764078014
 C1 0.524137 0.497727 0.57757  0.253764078014
 C2 0.444987 0.519703 0.56530  -0.272307588652
 C2 0.944965 0.519729 0.56529  -0.272307588652
 C3 0.397414 0.464754 0.54054  0.100155744681
 C3 0.897394 0.464769 0.54054  0.100155744681
 C2 0.431088 0.390855 0.52838  -0.272307588652
 C2 0.93107 0.390866 0.52839  -0.272307588652
 C1 0.009943 0.373966 0.54381  0.253764078014
 C1 0.509968 0.373949 0.54379  0.253764078014
 C4 0.385919 0.334062 0.49701  0.795205744681
 C4 0.885909 0.334061 0.4970  0.795205744681
 C4 0.414073 0.60137 0.57606  0.795205744681
 C4 0.91405 0.601403 0.57604  0.795205744681
 C1 0.313539 0.389331 0.29155  0.253764078014
 C1 0.813454 0.389337 0.29159  0.253764078014
 C2 0.369409 0.326291 0.29383  -0.272307588652
 C2 0.86935 0.326317 0.29387  -0.272307588652
 C4 0.396181 0.292837 0.34168  0.795205744681
 C4 0.896158 0.292871 0.34171  0.795205744681
 C1 0.23161 0.0 0.42081  0.253764078014
 C1 0.731648 0.0 0.42082  0.253764078014
 C2 0.31085 0.020524 0.43392  -0.272307588652
 C2 0.81088 0.02055 0.43393  -0.272307588652
 C3 0.356628 0.963624 0.45907  0.100155744681
 C3 0.856681 0.963655 0.45907  0.100155744681
 C2 0.320993 0.891173 0.47084  -0.272307588652
 C2 0.821072 0.89119 0.47083  -0.272307588652
 C1 0.241991 0.877739 0.4549  0.253764078014
 C1 0.742074 0.877738 0.45490  0.253764078014
 C4 0.363788 0.831881 0.50232  0.795205744681
 C4 0.863879 0.831888 0.50230  0.795205744681
 C4 0.34286 0.101305 0.42362  0.795205744681
 C4 0.842879 0.101332 0.42363  0.795205744681
 C1 0.438931 0.886746 0.70886  0.253764078014
 C1 0.939008 0.886324 0.7090  0.253764078014
 C2 0.383731 0.82429 0.70653  -0.272307588652
 C2 0.883995 0.823737 0.70641  -0.272307588652
 C4 0.35699 0.791008 0.65867  0.795205744681
 C4 0.857101 0.790889 0.65849  0.795205744681
 C1 0.479384 0.506474 0.0771  0.253764078014
 C1 0.979064 0.506279 0.07716  0.253764078014
 C2 0.057814 0.482889 0.06514  -0.272307588652
 C2 0.558113 0.483048 0.06510  -0.272307588652
 C3 0.106369 0.536908 0.04059  0.100155744681
 C3 0.606607 0.537005 0.04044  0.100155744681
 C2 0.074028 0.611329 0.02833  -0.272307588652
 C2 0.574264 0.611428 0.02818  -0.272307588652
 C1 0.495809 0.629874 0.04349  0.253764078014
 C1 0.995541 0.629751 0.04359  0.253764078014
 C4 0.120347 0.666841 0.99701  0.795205744681
 C4 0.620465 0.666878 0.99671  0.795205744681
 C4 0.087301 0.400718 0.07586  0.795205744681
 C4 0.587524 0.400856 0.07584  0.795205744681
 C1 0.190915 0.61046 0.79077  0.253764078014
 C1 0.68986 0.609816 0.79066  0.253764078014
 C2 0.134621 0.673048 0.7938  -0.272307588652
 C2 0.633732 0.672559 0.79370  -0.272307588652
 C4 0.108839 0.704767 0.84238  0.795205744681
 C4 0.607853 0.704485 0.84211  0.795205744681
 C1 0.270369 0.999282 0.92165  0.253764078014
 C1 0.770819 0.999378 0.92130  0.253764078014
 C2 0.191028 0.980491 0.93417  -0.272307588652
 C2 0.691442 0.980381 0.93360  -0.272307588652
 C3 0.144962 0.037349 0.95907  0.100155744681
 C3 0.645229 0.036996 0.95866  0.100155744681
 C2 0.18033 0.10981 0.97116  -0.272307588652
 C2 0.680484 0.109423 0.97106  -0.272307588652
 C1 0.259443 0.123366 0.95574  0.253764078014
 C1 0.759686 0.123109 0.95584  0.253764078014
 C4 0.136989 0.168882 0.00245  0.795205744681
 C4 0.637064 0.168506 0.00237  0.795205744681
 C4 0.158504 0.900025 0.92362  0.795205744681
 C4 0.659144 0.899929 0.92252  0.795205744681
 C1 0.065311 0.115189 0.20775  0.253764078014
 C1 0.565297 0.115217 0.20771  0.253764078014
 C2 0.119793 0.178255 0.20577  -0.272307588652
 C2 0.619781 0.178282 0.20574  -0.272307588652
 C4 0.146432 0.21209 0.15824  0.795205744681
 C4 0.646496 0.212098 0.15823  0.795205744681
 C3 0.104964 0.705922 0.75035  0.100155744681
 C3 0.604402 0.705581 0.75014  0.100155744681
 C3 0.148327 0.209548 0.24992  0.100155744681
 C3 0.648308 0.209565 0.24989  0.100155744681
 C3 0.398433 0.294611 0.24986  0.100155744681
 C3 0.898367 0.294645 0.24989  0.100155744681
 C3 0.354926 0.793147 0.75054  0.100155744681
 C3 0.855382 0.791891 0.75023  0.100155744681
 N1 0.447372 0.577764 0.43194  -0.435130921986
 N1 0.9475 0.577828 0.43197  -0.435130921986
 N1 0.306292 0.072473 0.56997  -0.435130921986
 N1 0.806241 0.072466 0.56998  -0.435130921986
 N1 0.054238 0.421784 0.93274  -0.435130921986
 N1 0.554137 0.422326 0.93264  -0.435130921986
 N1 0.197832 0.929198 0.06945  -0.435130921986
 N1 0.696851 0.929733 0.06953  -0.435130921986
 N1 0.056212 0.425828 0.5681  -0.435130921986
 N1 0.556243 0.425807 0.56811  -0.435130921986
 N1 0.197558 0.931351 0.4300  -0.435130921986
 N1 0.697618 0.931343 0.43008  -0.435130921986
 N1 0.448651 0.578978 0.06772  -0.435130921986
 N1 0.94834 0.578803 0.06774  -0.435130921986
 N1 0.304213 0.069724 0.93123  -0.435130921986
 N1 0.804606 0.069717 0.9312  -0.435130921986
 N1 0.217987 0.580094 0.74831  -0.435130921986
 N1 0.71713 0.579498 0.74824  -0.435130921986
 N1 0.038681 0.083297 0.24969  -0.435130921986
 N1 0.538658 0.083326 0.24965  -0.435130921986
 N1 0.286129 0.420988 0.24948  -0.435130921986
 N1 0.786007 0.42097 0.24952  -0.435130921986
 N1 0.466133 0.91812 0.75095  -0.435130921986
 N1 0.966113 0.917202 0.75130  -0.435130921986
 O1 0.048346 0.760563 0.65819  -0.717564255319
 O1 0.548332 0.760596 0.65811  -0.717564255319
 O1 0.142172 0.690662 0.61842  -0.717564255319
 O1 0.642094 0.690638 0.61829  -0.717564255319
 O1 0.083572 0.735713 0.5151  -0.717564255319
 O1 0.583493 0.735735 0.51508  -0.717564255319
 O1 0.187259 0.649701 0.51830  -0.717564255319
 O1 0.687211 0.649751 0.51813  -0.717564255319
 O1 0.038214 0.34718 0.41898  -0.717564255319
 O1 0.538198 0.347156 0.41897  -0.717564255319
 O1 0.165292 0.391428 0.42121  -0.717564255319
 O1 0.665257 0.391443 0.42121  -0.717564255319
 O1 0.204638 0.260352 0.34230  -0.717564255319
 O1 0.704631 0.260344 0.34228  -0.717564255319
 O1 0.11113 0.190894 0.38154  -0.717564255319
 O1 0.611126 0.190882 0.38152  -0.717564255319
 O1 0.176589 0.235436 0.48561  -0.717564255319
 O1 0.676571 0.235438 0.48561  -0.717564255319
 O1 0.06908 0.156332 0.48346  -0.717564255319
 O1 0.569059 0.156337 0.48345  -0.717564255319
 O1 0.212203 0.84669 0.58319  -0.717564255319
 O1 0.712167 0.846691 0.58316  -0.717564255319
 O1 0.085272 0.892666 0.57722  -0.717564255319
 O1 0.58522 0.892654 0.57721  -0.717564255319
 O1 0.454924 0.242937 0.15750  -0.717564255319
 O1 0.95478 0.242832 0.15762  -0.717564255319
 O1 0.360168 0.312788 0.11815  -0.717564255319
 O1 0.860144 0.312737 0.11819  -0.717564255319
 O1 0.417062 0.265281 0.01508  -0.717564255319
 O1 0.91688 0.264914 0.01516  -0.717564255319
 O1 0.31293 0.35071 0.01680  -0.717564255319
 O1 0.812909 0.350577 0.01683  -0.717564255319
 O1 0.465664 0.653828 0.92077  -0.717564255319
 O1 0.96622 0.653336 0.92094  -0.717564255319
 O1 0.338191 0.610885 0.92162  -0.717564255319
 O1 0.838627 0.610743 0.92155  -0.717564255319
 O1 0.298873 0.74281 0.84337  -0.717564255319
 O1 0.798944 0.73994 0.84209  -0.717564255319
 O1 0.392975 0.812423 0.88232  -0.717564255319
 O1 0.892058 0.809112 0.88224  -0.717564255319
 O1 0.329738 0.767476 0.98544  -0.717564255319
 O1 0.826454 0.767123 0.98564  -0.717564255319
 O1 0.437261 0.846529 0.98533  -0.717564255319
 O1 0.935523 0.843974 0.98545  -0.717564255319
 O1 0.290758 0.155868 0.0832  -0.717564255319
 O1 0.791539 0.155766 0.08326  -0.717564255319
 O1 0.41779 0.109949 0.0787  -0.717564255319
 O1 0.918217 0.1086 0.07881  -0.717564255319
 O1 0.454214 0.243324 0.34272  -0.717564255319
 O1 0.954198 0.243366 0.34275  -0.717564255319
 O1 0.360725 0.315692 0.38137  -0.717564255319
 O1 0.8607 0.315713 0.38140  -0.717564255319
 O1 0.419881 0.268018 0.4847  -0.717564255319
 O1 0.91989 0.268029 0.484  -0.717564255319
 O1 0.315855 0.353633 0.48263  -0.717564255319
 O1 0.81584 0.353617 0.48264  -0.717564255319
 O1 0.465477 0.65643 0.5810  -0.717564255319
 O1 0.96547 0.65644 0.58108  -0.717564255319
 O1 0.3384 0.612243 0.57885  -0.717564255319
 O1 0.838375 0.612298 0.5787  -0.717564255319
 O1 0.298726 0.742957 0.65796  -0.717564255319
 O1 0.798771 0.742919 0.65772  -0.717564255319
 O1 0.392308 0.812388 0.61877  -0.717564255319
 O1 0.892395 0.812476 0.61865  -0.717564255319
 O1 0.32698 0.768223 0.51433  -0.717564255319
 O1 0.827051 0.768233 0.51429  -0.717564255319
 O1 0.434627 0.84714 0.51674  -0.717564255319
 O1 0.934717 0.847125 0.51672  -0.717564255319
 O1 0.29184 0.15725 0.41679  -0.717564255319
 O1 0.791855 0.157272 0.416  -0.717564255319
 O1 0.418675 0.110927 0.42289  -0.717564255319
 O1 0.918694 0.110947 0.42288  -0.717564255319
 O1 0.050582 0.753963 0.84449  -0.717564255319
 O1 0.549394 0.753437 0.84412  -0.717564255319
 O1 0.146074 0.680771 0.88120  -0.717564255319
 O1 0.645348 0.68095 0.88097  -0.717564255319
 O1 0.087337 0.73286 0.98362  -0.717564255319
 O1 0.58741 0.732978 0.98348  -0.717564255319
 O1 0.190571 0.646492 0.98362  -0.717564255319
 O1 0.690496 0.64636 0.98311  -0.717564255319
 O1 0.034888 0.346632 0.08055  -0.717564255319
 O1 0.535001 0.346872 0.08060  -0.717564255319
 O1 0.162822 0.388649 0.07891  -0.717564255319
 O1 0.663011 0.388605 0.07885  -0.717564255319
 O1 0.204674 0.260124 0.15793  -0.717564255319
 O1 0.704749 0.260118 0.15795  -0.717564255319
 O1 0.111108 0.191146 0.11808  -0.717564255319
 O1 0.611277 0.191157 0.11802  -0.717564255319
 O1 0.173307 0.232831 0.0145  -0.717564255319
 O1 0.673376 0.232479 0.01453  -0.717564255319
 O1 0.066229 0.153143 0.01663  -0.717564255319
 O1 0.566274 0.152886 0.0165  -0.717564255319
 O1 0.208724 0.843424 0.91677  -0.717564255319
 O1 0.709482 0.843539 0.91531  -0.717564255319
 O1 0.082553 0.891299 0.92277  -0.717564255319
 O1 0.583209 0.891072 0.92156  -0.717564255319
