#======================================================================

# CRYSTAL DATA

#----------------------------------------------------------------------

data_VESTA_phase_1


_pd_phase_name                         MOF
_cell_length_a                         14.23900
_cell_length_b                         12.96000
_cell_length_c                         12.96000
_cell_angle_alpha                      97.77900
_cell_angle_beta                       96.29900
_cell_angle_gamma                      83.69100
_symmetry_space_group_name_H-M         "P 1"
_symmetry_Int_Tables_number            1

loop_
_symmetry_equiv_pos_as_xyz
   "x, y, z"

loop_
   _atom_site_label
   _atom_site_fract_x
   _atom_site_fract_y
   _atom_site_fract_z
 _atom_site_charge
 Cd1 0.453719 0.342919 0.06445  1.16814529412
 Cd1 0.953703 0.342873 0.06437  1.16814529412
 Cd1 0.29627 0.06443 0.3429  1.16814529412
 Cd1 0.796394 0.064382 0.34285  1.16814529412
 Cd1 0.046321 0.657163 0.93564  1.16814529412
 Cd1 0.546305 0.657117 0.93556  1.16814529412
 Cd1 0.20363 0.935655 0.65716  1.16814529412
 Cd1 0.703756 0.935606 0.65704  1.16814529412
 H1 0.226465 0.412089 0.53515  0.310105294118
 H1 0.726504 0.412077 0.53520  0.310105294118
 H1 0.023608 0.535212 0.41207  0.310105294118
 H1 0.523469 0.535219 0.41204  0.310105294118
 H1 0.273522 0.587959 0.46481  0.310105294118
 H1 0.77356 0.587947 0.46486  0.310105294118
 H1 0.476552 0.464818 0.58797  0.310105294118
 H1 0.976418 0.464823 0.58794  0.310105294118
 C1 0.219735 0.525454 0.66635  0.717355294118
 C1 0.719804 0.525447 0.66639  0.717355294118
 C1 0.189703 0.348113 0.66556  0.717355294118
 C1 0.689761 0.348111 0.66561  0.717355294118
 C1 0.170905 0.468906 0.80880  0.717355294118
 C1 0.67101 0.468901 0.80886  0.717355294118
 C2 0.247769 0.692869 0.66018  0.659858627451
 C2 0.747867 0.692855 0.66020  0.659858627451
 C2 0.166244 0.175696 0.65260  0.659858627451
 C2 0.666305 0.175679 0.65260  0.659858627451
 C2 0.11852 0.430418 0.96284  0.659858627451
 C2 0.618593 0.430484 0.9629  0.659858627451
 C1 0.030238 0.666397 0.52546  0.717355294118
 C1 0.530246 0.666411 0.52540  0.717355294118
 C1 0.06034 0.665654 0.34813  0.717355294118
 C1 0.560255 0.665596 0.3480  0.717355294118
 C1 0.078999 0.80889 0.46895  0.717355294118
 C1 0.579116 0.808819 0.46883  0.717355294118
 C2 0.502177 0.660251 0.69282  0.659858627451
 C2 0.0 0.660196 0.69286  0.659858627451
 C2 0.083797 0.652709 0.17570  0.659858627451
 C2 0.583713 0.652598 0.17562  0.659858627451
 C2 0.131391 0.962955 0.43053  0.659858627451
 C2 0.631531 0.962873 0.43036  0.659858627451
 C1 0.280224 0.474588 0.33362  0.717355294118
 C1 0.780291 0.474581 0.33366  0.717355294118
 C1 0.310267 0.651924 0.33440  0.717355294118
 C1 0.810323 0.651922 0.33445  0.717355294118
 C1 0.329017 0.531134 0.19115  0.717355294118
 C1 0.82912 0.531129 0.19121  0.717355294118
 C2 0.252158 0.307181 0.33981  0.659858627451
 C2 0.752255 0.307167 0.33983  0.659858627451
 C2 0.333719 0.824357 0.34741  0.659858627451
 C2 0.83378 0.82434 0.34741  0.659858627451
 C2 0.381431 0.569551 0.03707  0.659858627451
 C2 0.881504 0.569617 0.03717  0.659858627451
 C1 0.469768 0.333629 0.4746  0.717355294118
 C1 0.969791 0.333636 0.47455  0.717355294118
 C1 0.439759 0.334443 0.65196  0.717355294118
 C1 0.93969 0.33438 0.65188  0.717355294118
 C1 0.420902 0.191219 0.53117  0.717355294118
 C1 0.921029 0.191144 0.53106  0.717355294118
 C2 0.997836 0.33984 0.30715  0.659858627451
 C2 0.497848 0.339784 0.30719  0.659858627451
 C2 0.416313 0.347438 0.82439  0.659858627451
 C2 0.916227 0.347327 0.82431  0.659858627451
 C2 0.368494 0.037162 0.56965  0.659858627451
 C2 0.868633 0.03708 0.56948  0.659858627451
 N1 0.214068 0.426527 0.61375  -0.471644705882
 N1 0.714115 0.426522 0.61380  -0.471644705882
 N2 0.169677 0.368548 0.76508  -0.628094705882
 N2 0.669784 0.368539 0.76514  -0.628094705882
 N2 0.197107 0.548444 0.76416  -0.628094705882
 N2 0.697173 0.548448 0.76420  -0.628094705882
 N2 0.248459 0.597707 0.61286  -0.628094705882
 N2 0.748524 0.597691 0.61289  -0.628094705882
 N3 0.249874 0.780982 0.69750  -0.656911372549
 N3 0.749997 0.780971 0.69750  -0.656911372549
 N2 0.184539 0.253978 0.60855  -0.628094705882
 N2 0.684529 0.254001 0.60857  -0.628094705882
 N3 0.148379 0.099236 0.68447  -0.656911372549
 N3 0.648498 0.099182 0.6844  -0.656911372549
 N4 0.140917 0.498291 0.90640  -0.655134705882
 N4 0.641039 0.498302 0.90647  -0.655134705882
 N3 0.096157 0.381401 0.02506  -0.656911372549
 N3 0.596183 0.381563 0.02521  -0.656911372549
 N1 0.035992 0.613809 0.42653  -0.471644705882
 N1 0.535861 0.613813 0.42646  -0.471644705882
 N2 0.080269 0.765195 0.36858  -0.628094705882
 N2 0.580308 0.765096 0.36847  -0.628094705882
 N2 0.052788 0.76423 0.54846  -0.628094705882
 N2 0.552942 0.764191 0.54839  -0.628094705882
 N2 0.501506 0.612934 0.59766  -0.628094705882
 N2 0.0 0.612879 0.597  -0.628094705882
 N3 0.500048 0.697558 0.78093  -0.656911372549
 N3 0.0 0.697499 0.78098  -0.656911372549
 N2 0.06559 0.608648 0.25401  -0.628094705882
 N2 0.565438 0.608565 0.25392  -0.628094705882
 N3 0.101591 0.684585 0.09921  -0.656911372549
 N3 0.601548 0.684461 0.09914  -0.656911372549
 N4 0.10894 0.906505 0.49836  -0.655134705882
 N4 0.609125 0.906409 0.4982  -0.655134705882
 N3 0.153803 0.02518 0.38157  -0.656911372549
 N3 0.653906 0.025128 0.38142  -0.656911372549
 N1 0.28591 0.573513 0.38621  -0.471644705882
 N1 0.785957 0.573509 0.38626  -0.471644705882
 N2 0.330237 0.631497 0.2348  -0.628094705882
 N2 0.830346 0.631488 0.23493  -0.628094705882
 N2 0.302848 0.451589 0.23581  -0.628094705882
 N2 0.802916 0.451592 0.23585  -0.628094705882
 N2 0.251499 0.402345 0.38712  -0.628094705882
 N2 0.751565 0.402329 0.38715  -0.628094705882
 N3 0.250029 0.219065 0.30251  -0.656911372549
 N3 0.75015 0.219054 0.30251  -0.656911372549
 N2 0.315494 0.746035 0.3914  -0.628094705882
 N2 0.815486 0.746058 0.39146  -0.628094705882
 N3 0.351527 0.900853 0.31556  -0.656911372549
 N3 0.851644 0.9008 0.31554  -0.656911372549
 N4 0.358985 0.501734 0.09354  -0.655134705882
 N4 0.859108 0.501745 0.09361  -0.655134705882
 N3 0.403841 0.618473 0.97480  -0.656911372549
 N3 0.903867 0.618634 0.97495  -0.656911372549
 N1 0.464161 0.386223 0.57354  -0.471644705882
 N1 0.964034 0.386227 0.5734  -0.471644705882
 N2 0.419726 0.234936 0.63154  -0.628094705882
 N2 0.919751 0.234842 0.63143  -0.628094705882
 N2 0.447092 0.235841 0.45162  -0.628094705882
 N2 0.947232 0.235807 0.4515  -0.628094705882
 N2 0.998485 0.387157 0.40231  -0.628094705882
 N2 0.498521 0.387101 0.40235  -0.628094705882
 N3 0.99997 0.302537 0.21903  -0.656911372549
 N3 0.499977 0.302477 0.21908  -0.656911372549
 N2 0.434588 0.39147 0.74609  -0.628094705882
 N2 0.934434 0.391388 0.74600  -0.628094705882
 N3 0.398477 0.315575 0.9008  -0.656911372549
 N3 0.898433 0.315451 0.90080  -0.656911372549
 N4 0.3909 0.093626 0.5018  -0.655134705882
 N4 0.891085 0.093531 0.50165  -0.655134705882
 N3 0.346119 0.974908 0.61859  -0.656911372549
 N3 0.846222 0.974855 0.6184  -0.656911372549
