#======================================================================

# CRYSTAL DATA

#----------------------------------------------------------------------

data_VESTA_phase_1


_pd_phase_name                         MOF
_cell_length_a                         14.01000
_cell_length_b                         16.78700
_cell_length_c                         16.81800
_cell_angle_alpha                      103.80400
_cell_angle_beta                       109.77500
_cell_angle_gamma                      109.72100
_symmetry_space_group_name_H-M         "P 1"
_symmetry_Int_Tables_number            1

loop_
_symmetry_equiv_pos_as_xyz
   "x, y, z"

loop_
   _atom_site_label
   _atom_site_fract_x
   _atom_site_fract_y
   _atom_site_fract_z
 _atom_site_charge
 Zn1 0.287911 0.33897 0.20298  1.01380365385
 Zn2 0.540208 0.360624 0.27519  1.04059365385
 Zn1 0.212351 0.79713 0.66157  1.01380365385
 Zn2 0.96004 0.725055 0.64010  1.04059365385
 Zn1 0.712147 0.661061 0.79704  1.01380365385
 Zn2 0.459849 0.639408 0.72483  1.04059365385
 Zn1 0.787719 0.202909 0.33845  1.01380365385
 Zn2 0.040023 0.274987 0.35992  1.04059365385
 H1 0.648798 0.476401 0.10843  0.126782225275
 H1 0.127586 0.063642 0.04153  0.126782225275
 H1 0.35214 0.487092 0.55120  0.126782225275
 H1 0.057763 0.344322 0.16645  0.126782225275
 H1 0.854606 0.249102 0.04327  0.126782225275
 H1 0.977171 0.119789 0.87446  0.126782225275
 H1 0.176174 0.224238 0.00192  0.126782225275
 H2 0.291717 0.430582 0.0475  0.391468653846
 H2 0.505896 0.162639 0.13839  0.391468653846
 H1 0.851574 0.89187 0.52403  0.126782225275
 H1 0.372721 0.958966 0.93663  0.126782225275
 H1 0.147758 0.448679 0.51176  0.126782225275
 H1 0.442463 0.833709 0.6561  0.126782225275
 H1 0.645661 0.957003 0.75129  0.126782225275
 H1 0.523205 0.126126 0.88050  0.126782225275
 H1 0.324144 0.998556 0.77618  0.126782225275
 H2 0.208383 0.952275 0.56943  0.391468653846
 H2 0.994462 0.861978 0.83780  0.391468653846
 H1 0.351271 0.523623 0.89159  0.126782225275
 H1 0.87247 0.936385 0.95850  0.126782225275
 H1 0.647921 0.512951 0.44882  0.126782225275
 H1 0.942294 0.655703 0.83357  0.126782225275
 H1 0.145455 0.75091 0.95675  0.126782225275
 H1 0.022908 0.880245 0.12556  0.126782225275
 H1 0.823903 0.77581 0.99810  0.126782225275
 H2 0.708346 0.569431 0.95243  0.391468653846
 H2 0.49416 0.837397 0.86164  0.391468653846
 H1 0.148504 0.108165 0.47598  0.126782225275
 H1 0.627338 0.041071 0.06339  0.126782225275
 H1 0.852301 0.551355 0.4882  0.126782225275
 H1 0.557603 0.166321 0.34385  0.126782225275
 H1 0.354404 0.043026 0.24873  0.126782225275
 H1 0.47687 0.873922 0.11950  0.126782225275
 H1 0.675931 0.001491 0.22383  0.126782225275
 H2 0.791692 0.047756 0.43058  0.391468653846
 H2 0.005595 0.138053 0.16222  0.391468653846
 C1 0.459197 0.422869 0.12875  0.723306987179
 C2 0.478621 0.462845 0.06244  -0.253056346154
 C3 0.583792 0.486809 0.06070  -0.187314346154
 C4 0.393092 0.476335 0.  0.333923653846
 C1 0.34838 0.182084 0.14572  0.723306987179
 C2 0.299926 0.092716 0.06779  -0.253056346154
 C3 0.180971 0.040674 0.01802  -0.187314346154
 C4 0.370651 0.062167 0.03931  0.333923653846
 C1 0.260342 0.380716 0.37646  0.723306987179
 C2 0.384107 0.441543 0.43703  -0.253056346154
 C4 0.468135 0.447593 0.40636  0.333923653846
 C3 0.418019 0.493426 0.52932  -0.187314346154
 C5 0.036306 0.295841 0.09970  0.206447403846
 C3 0.924123 0.242666 0.03190  -0.187314346154
 C6 0.901071 0.17667 0.94969  0.231003653846
 C3 0.992811 0.170629 0.93753  -0.187314346154
 C5 0.102829 0.227898 0.00827  0.206447403846
 C1 0.041069 0.871323 0.57742  0.723306987179
 C2 0.021566 0.937651 0.53736  -0.253056346154
 C3 0.916447 0.939475 0.51343  -0.187314346154
 C4 0.10694 0.999349 0.52361  0.333923653846
 C1 0.151905 0.854781 0.81827  0.723306987179
 C2 0.200387 0.932651 0.90765  -0.253056346154
 C3 0.319342 0.982439 0.95966  -0.187314346154
 C4 0.129664 0.961062 0.93825  0.333923653846
 C1 0.23974 0.623293 0.61935  0.723306987179
 C2 0.115966 0.562865 0.55848  -0.253056346154
 C4 0.03205 0.593625 0.5531  0.333923653846
 C3 0.081933 0.470617 0.50594  -0.187314346154
 C5 0.463938 0.900555 0.70462  0.206447403846
 C3 0.57616 0.968416 0.75773  -0.187314346154
 C6 0.599258 0.050722 0.82369  0.231003653846
 C3 0.507539 0.062965 0.82971  -0.187314346154
 C5 0.397468 0.992163 0.7725  0.206447403846
 C1 0.540843 0.577097 0.87123  0.723306987179
 C2 0.521457 0.537198 0.93760  -0.253056346154
 C3 0.416275 0.513211 0.93931  -0.187314346154
 C4 0.60697 0.523675 0.9994  0.333923653846
 C1 0.651678 0.81797 0.85428  0.723306987179
 C2 0.70013 0.907309 0.93225  -0.253056346154
 C3 0.819085 0.959354 0.98201  -0.187314346154
 C4 0.629404 0.937867 0.96071  0.333923653846
 C1 0.739718 0.619329 0.62356  0.723306987179
 C2 0.615953 0.558497 0.56299  -0.253056346154
 C4 0.531925 0.55245 0.59366  0.333923653846
 C3 0.582042 0.506616 0.47070  -0.187314346154
 C5 0.963757 0.70419 0.90032  0.206447403846
 C3 0.075942 0.757349 0.96812  -0.187314346154
 C6 0.098996 0.82336 0.05033  0.231003653846
 C3 0.007264 0.829402 0.06250  -0.187314346154
 C5 0.897244 0.772144 0.99176  0.206447403846
 C1 0.959012 0.128721 0.42260  0.723306987179
 C2 0.978509 0.062382 0.46265  -0.253056346154
 C3 0.08363 0.060561 0.48658  -0.187314346154
 C4 0.893137 0.0 0.47640  0.333923653846
 C1 0.848153 0.145271 0.18174  0.723306987179
 C2 0.799671 0.067375 0.09238  -0.253056346154
 C3 0.680716 0.017596 0.04037  -0.187314346154
 C4 0.870394 0.038971 0.06177  0.333923653846
 C1 0.760316 0.376741 0.38070  0.723306987179
 C2 0.884094 0.437172 0.44154  -0.253056346154
 C4 0.96801 0.40641 0.44690  0.333923653846
 C3 0.918127 0.529418 0.49409  -0.187314346154
 C5 0.536129 0.099479 0.29540  0.206447403846
 C3 0.423907 0.031616 0.24229  -0.187314346154
 C6 0.400815 0.949318 0.17632  0.231003653846
 C3 0.492533 0.937077 0.17030  -0.187314346154
 C5 0.602604 0.00788 0.22750  0.206447403846
 N1 0.125032 0.288337 0.08927  -0.364436346154
 N2 0.790425 0.110146 0.87863  -0.115871346154
 N1 0.375235 0.911034 0.71213  -0.364436346154
 N2 0.709914 0.121801 0.89019  -0.115871346154
 N1 0.875037 0.7117 0.91075  -0.364436346154
 N2 0.209648 0.889874 0.12139  -0.115871346154
 N1 0.624832 0.089003 0.28788  -0.364436346154
 N2 0.290157 0.878237 0.10982  -0.115871346154
 O1 0.361439 0.401006 0.12931  -0.608323012821
 O1 0.539425 0.411572 0.18026  -0.608323012821
 O2 0.289452 0.454684 0.99851  -0.530228846154
 O1 0.281107 0.211533 0.1596  -0.608323012821
 O1 0.458658 0.225761 0.19415  -0.608323012821
 O2 0.486261 0.107461 0.08531  -0.530228846154
 O3 0.441362 0.397739 0.31881  -0.653956346154
 O1 0.215641 0.347257 0.28867  -0.608323012821
 O1 0.198837 0.363996 0.41814  -0.608323012821
 O1 0.138782 0.870634 0.59919  -0.608323012821
 O1 0.961089 0.820071 0.58906  -0.608323012821
 O2 0.210557 0.001309 0.54521  -0.530228846154
 O1 0.219146 0.840937 0.78878  -0.608323012821
 O1 0.041625 0.806255 0.77470  -0.608323012821
 O2 0.014052 0.915056 0.89297  -0.530228846154
 O3 0.059079 0.681118 0.60376  -0.653956346154
 O1 0.284578 0.71123 0.65308  -0.608323012821
 O1 0.301159 0.581363 0.63562  -0.608323012821
 O1 0.638638 0.599034 0.87072  -0.608323012821
 O1 0.460657 0.58848 0.81978  -0.608323012821
 O2 0.710613 0.545333 0.00150  -0.530228846154
 O1 0.718947 0.788491 0.84037  -0.608323012821
 O1 0.541394 0.774262 0.80589  -0.608323012821
 O2 0.513794 0.892573 0.91472  -0.530228846154
 O3 0.558697 0.602305 0.68121  -0.653956346154
 O1 0.784423 0.652775 0.71135  -0.608323012821
 O1 0.801222 0.636054 0.58188  -0.608323012821
 O1 0.861287 0.129393 0.4008  -0.608323012821
 O1 0.038989 0.179971 0.41096  -0.608323012821
 O2 0.789515 0.99872 0.45479  -0.530228846154
 O1 0.780915 0.1591 0.21124  -0.608323012821
 O1 0.958435 0.193775 0.2253  -0.608323012821
 O2 0.986007 0.08497 0.10706  -0.530228846154
 O3 0.940984 0.31892 0.39627  -0.653956346154
 O1 0.715484 0.288805 0.34693  -0.608323012821
 O1 0.6989 0.41867 0.36440  -0.608323012821
