#======================================================================

# CRYSTAL DATA

#----------------------------------------------------------------------

data_VESTA_phase_1


_pd_phase_name                         MOF
_cell_length_a                         14.01300
_cell_length_b                         15.19300
_cell_length_c                         15.31700
_cell_angle_alpha                      86.58300
_cell_angle_beta                       85.39100
_cell_angle_gamma                      88.00500
_symmetry_space_group_name_H-M         "P 1"
_symmetry_Int_Tables_number            1

loop_
_symmetry_equiv_pos_as_xyz
   "x, y, z"

loop_
   _atom_site_label
   _atom_site_fract_x
   _atom_site_fract_y
   _atom_site_fract_z
 _atom_site_charge
 Zn1 0.891805 0.604144 0.84091  0.925605555556
 Zn1 0.688859 0.614537 0.85303  0.925605555556
 Zn1 0.108125 0.395832 0.15909  0.925605555556
 Zn1 0.310951 0.385442 0.14699  0.925605555556
 H1 0.203456 0.64281 0.98409  0.101071507937
 H1 0.060692 0.584985 0.71132  0.101071507937
 H1 0.238354 0.590766 0.70812  0.101071507937
 H1 0.028153 0.630071 0.97615  0.101071507937
 H1 0.627341 0.606616 0.30211  0.101071507937
 H1 0.625171 0.60573 0.13933  0.101071507937
 H1 0.931976 0.616734 0.12114  0.101071507937
 H1 0.650889 0.65676 0.58257  0.101071507937
 H1 0.640833 0.66159 0.42199  0.101071507937
 H1 0.936518 0.574278 0.38798  0.101071507937
 H1 0.94551 0.570404 0.55089  0.101071507937
 H1 0.644772 0.318005 0.8821  0.101071507937
 H1 0.652004 0.909222 0.8754  0.101071507937
 H1 0.943545 0.343604 0.79821  0.101071507937
 H1 0.963353 0.18185 0.78835  0.101071507937
 H1 0.95071 0.872624 0.79459  0.101071507937
 H1 0.9661 0.037426 0.78993  0.101071507937
 H1 0.548599 0.662749 0.72153  0.101071507937
 H1 0.522738 0.579815 0.9839  0.101071507937
 H1 0.345423 0.572222 0.98607  0.101071507937
 H1 0.371123 0.66662 0.71275  0.101071507937
 H1 0.79643 0.357209 0.01590  0.101071507937
 H1 0.939206 0.41498 0.2886  0.101071507937
 H1 0.761543 0.409222 0.29187  0.101071507937
 H1 0.971735 0.369925 0.0238  0.101071507937
 H1 0.372595 0.393427 0.69789  0.101071507937
 H1 0.374759 0.394293 0.8606  0.101071507937
 H1 0.067958 0.383228 0.87885  0.101071507937
 H1 0.349008 0.343293 0.41740  0.101071507937
 H1 0.359115 0.33848 0.57798  0.101071507937
 H1 0.06341 0.425719 0.61205  0.101071507937
 H1 0.054368 0.429577 0.44915  0.101071507937
 H1 0.355114 0.681954 0.11783  0.101071507937
 H1 0.347919 0.090751 0.12445  0.101071507937
 H1 0.05635 0.656395 0.20183  0.101071507937
 H1 0.036579 0.818149 0.21172  0.101071507937
 H1 0.049253 0.127354 0.20550  0.101071507937
 H1 0.033859 0.962551 0.21018  0.101071507937
 H1 0.451293 0.337197 0.2784  0.101071507937
 H1 0.477119 0.420256 0.01606  0.101071507937
 H1 0.654435 0.427841 0.01394  0.101071507937
 H1 0.628769 0.33332 0.28723  0.101071507937
 Rh1 0.624408 0.109895 0.88447  0.0350305555556
 Rh1 0.375507 0.890069 0.11550  0.0350305555556
 C1 0.237078 0.617134 0.84644  -0.0606494444444
 C2 0.175904 0.628299 0.92228  -0.108218777778
 C1 0.793429 0.339086 0.84316  -0.0606494444444
 C3 0.096123 0.597501 0.76991  0.170722222222
 C1 0.778566 0.612447 0.11755  -0.0606494444444
 C1 0.798305 0.612332 0.57711  -0.0606494444444
 C2 0.194918 0.602075 0.76880  -0.108218777778
 C3 0.077788 0.622519 0.91850  0.170722222222
 C4 0.781085 0.610381 0.01980  0.692895555556
 C4 0.785966 0.436984 0.85114  0.692895555556
 C2 0.69394 0.610743 0.26044  -0.108218777778
 C4 0.790193 0.781449 0.83925  0.692895555556
 C2 0.692219 0.609651 0.1700  -0.108218777778
 C3 0.863203 0.615964 0.15998  0.170722222222
 C4 0.802123 0.609977 0.67491  0.692895555556
 C1 0.342054 0.619571 0.84890  -0.0606494444444
 C5 0.782257 0.615323 0.29751  0.234880555556
 C1 0.787777 0.615667 0.39355  -0.0606494444444
 C2 0.712868 0.637783 0.53961  -0.108218777778
 C1 0.800239 0.879583 0.83533  -0.0606494444444
 C2 0.707596 0.639604 0.44937  -0.108218777778
 C2 0.873917 0.591345 0.43127  -0.108218777778
 C2 0.878954 0.589616 0.52176  -0.108218777778
 C2 0.713691 0.285944 0.86328  -0.108218777778
 C3 0.722215 0.936006 0.85648  0.170722222222
 C2 0.883346 0.301137 0.81607  -0.108218777778
 C6 0.723245 0.193867 0.85904  -0.183889444444
 C1 0.815204 0.156462 0.83243  -0.0606494444444
 C5 0.817851 0.061381 0.83069  0.234880555556
 C2 0.893662 0.210464 0.81030  -0.108218777778
 C2 0.889565 0.916333 0.81098  -0.108218777778
 C2 0.897535 0.007233 0.8086  -0.108218777778
 C3 0.499916 0.644448 0.77827  0.170722222222
 C3 0.485461 0.59742 0.92537  0.170722222222
 C2 0.386466 0.595277 0.92616  -0.108218777778
 C2 0.401348 0.645183 0.77409  -0.108218777778
 C1 0.76281 0.382865 0.15355  -0.0606494444444
 C2 0.823983 0.371708 0.07771  -0.108218777778
 C1 0.206455 0.660893 0.15685  -0.0606494444444
 C3 0.903774 0.402475 0.23008  0.170722222222
 C1 0.221359 0.387612 0.8824  -0.0606494444444
 C1 0.201573 0.387665 0.42290  -0.0606494444444
 C2 0.804974 0.397916 0.23119  -0.108218777778
 C3 0.922103 0.377473 0.08149  0.170722222222
 C4 0.218838 0.389612 0.98020  0.692895555556
 C4 0.213893 0.562996 0.1488  0.692895555556
 C2 0.305995 0.389298 0.73955  -0.108218777778
 C4 0.209752 0.218523 0.16076  0.692895555556
 C2 0.307713 0.390372 0.82993  -0.108218777778
 C3 0.13673 0.384017 0.84001  0.170722222222
 C4 0.197723 0.390009 0.32510  0.692895555556
 C1 0.657824 0.380431 0.15110  -0.0606494444444
 C5 0.217682 0.384677 0.70249  0.234880555556
 C1 0.212157 0.38435 0.60645  -0.0606494444444
 C2 0.287035 0.362253 0.46038  -0.108218777778
 C1 0.199705 0.120391 0.16468  -0.0606494444444
 C2 0.292334 0.360438 0.5506  -0.108218777778
 C2 0.126001 0.408656 0.56875  -0.108218777778
 C2 0.120938 0.410381 0.4782  -0.108218777778
 C2 0.286204 0.714022 0.1367  -0.108218777778
 C3 0.277716 0.063966 0.14349  0.170722222222
 C2 0.116553 0.698853 0.18396  -0.108218777778
 C6 0.276668 0.806101 0.14096  -0.183889444444
 C1 0.184722 0.843514 0.16760  -0.0606494444444
 C5 0.182085 0.938594 0.16933  0.234880555556
 C2 0.106257 0.789525 0.1897  -0.108218777778
 C2 0.110387 0.083644 0.18908  -0.108218777778
 C2 0.102416 0.992744 0.19144  -0.108218777778
 C3 0.499964 0.355527 0.2217  0.170722222222
 C3 0.5144 0.402625 0.07465  0.170722222222
 C2 0.613401 0.404763 0.07385  -0.108218777778
 C2 0.598538 0.354786 0.22590  -0.108218777778
 N1 0.038142 0.607132 0.84363  -0.299959444444
 N1 0.541794 0.620688 0.85269  -0.299959444444
 N2 0.866165 0.617494 0.24696  -0.418729444444
 N3 0.729462 0.024773 0.85488  -0.184079444444
 N1 0.961756 0.392836 0.15636  -0.299959444444
 N1 0.458072 0.379322 0.14733  -0.299959444444
 N2 0.133775 0.38247 0.75304  -0.418729444444
 N3 0.270464 0.975199 0.14509  -0.184079444444
 O1 0.862092 0.618426 0.97718  -0.597415694444
 O1 0.722905 0.62532 0.71968  -0.597415694444
 O1 0.701251 0.600404 0.98729  -0.597415694444
 O1 0.703754 0.475668 0.85142  -0.597415694444
 O1 0.882607 0.593016 0.70598  -0.597415694444
 O1 0.865003 0.474233 0.85880  -0.597415694444
 O1 0.707626 0.75043 0.85924  -0.597415694444
 O1 0.86737 0.736995 0.82195  -0.597415694444
 O1 0.137835 0.381538 0.02281  -0.597415694444
 O1 0.276923 0.37464 0.28032  -0.597415694444
 O1 0.29867 0.399564 0.01272  -0.597415694444
 O1 0.296103 0.524302 0.14857  -0.597415694444
 O1 0.117242 0.406981 0.29404  -0.597415694444
 O1 0.134845 0.52576 0.14120  -0.597415694444
 O1 0.292319 0.249539 0.14076  -0.597415694444
 O1 0.132581 0.262984 0.17807  -0.597415694444
