#======================================================================

# CRYSTAL DATA

#----------------------------------------------------------------------

data_VESTA_phase_1


_pd_phase_name                         MOF
_cell_length_a                         14.92600
_cell_length_b                         19.99400
_cell_length_c                         20.52500
_cell_angle_alpha                      89.99800
_cell_angle_beta                       94.36400
_cell_angle_gamma                      89.99300
_symmetry_space_group_name_H-M         "P 1"
_symmetry_Int_Tables_number            1

loop_
_symmetry_equiv_pos_as_xyz
   "x, y, z"

loop_
   _atom_site_label
   _atom_site_fract_x
   _atom_site_fract_y
   _atom_site_fract_z
 _atom_site_charge
 Cd1 0.376522 0.453585 0.66742  0.977125288462
 Cd1 0.137346 0.547009 0.67194  0.977125288462
 Cd1 0.123496 0.953569 0.33259  0.977125288462
 Cd1 0.362688 0.047027 0.32805  0.977125288462
 Cd1 0.623522 0.546422 0.33258  0.977125288462
 Cd1 0.862697 0.452998 0.32806  0.977125288462
 Cd1 0.876548 0.046438 0.66741  0.977125288462
 Cd1 0.637356 0.95298 0.67195  0.977125288462
 H1 0.395043 0.528708 0.33741  0.304140288462
 H1 0.325069 0.414628 0.00208  0.304140288462
 H1 0.094235 0.47302 0.33950  0.304140288462
 H1 0.181181 0.581516 0.01407  0.304140288462
 H2 0.350532 0.56755 0.24517  0.110052431319
 H2 0.360888 0.591411 0.12773  0.110052431319
 H2 0.37802 0.380054 0.08863  0.110052431319
 H2 0.362981 0.356426 0.20562  0.110052431319
 H2 0.409973 0.562382 0.55803  0.110052431319
 H2 0.407784 0.576513 0.4374  0.110052431319
 H2 0.318034 0.371647 0.41759  0.110052431319
 H2 0.323288 0.365995 0.53919  0.110052431319
 H2 0.442664 0.542223 0.79098  0.110052431319
 H2 0.430732 0.552168 0.91133  0.110052431319
 H2 0.291651 0.362396 0.90252  0.110052431319
 H2 0.306459 0.361912 0.78236  0.110052431319
 H2 0.127896 0.645016 0.2095  0.110052431319
 H2 0.114436 0.620441 0.09063  0.110052431319
 H2 0.123675 0.409377 0.13330  0.110052431319
 H2 0.13217 0.433976 0.25159  0.110052431319
 H2 0.172444 0.636818 0.54745  0.110052431319
 H2 0.171441 0.63111 0.42598  0.110052431319
 H2 0.087275 0.425178 0.43877  0.110052431319
 H2 0.090604 0.439497 0.55925  0.110052431319
 H2 0.222008 0.632193 0.79857  0.110052431319
 H2 0.226253 0.631953 0.92019  0.110052431319
 H2 0.07521 0.447397 0.90716  0.110052431319
 H2 0.076291 0.45609 0.78591  0.110052431319
 H2 0.250996 0.711689 0.67555  0.110052431319
 H2 0.320993 0.832615 0.67433  0.110052431319
 H2 0.261873 0.287732 0.66992  0.110052431319
 H2 0.190494 0.167246 0.6685  0.110052431319
 H1 0.105002 0.028705 0.66259  0.304140288462
 H1 0.174983 0.914627 0.99793  0.304140288462
 H1 0.405791 0.973023 0.660  0.304140288462
 H1 0.318808 0.081519 0.98592  0.304140288462
 H2 0.149487 0.06754 0.75483  0.110052431319
 H2 0.139135 0.091409 0.87226  0.110052431319
 H2 0.122028 0.880058 0.91139  0.110052431319
 H2 0.137064 0.856423 0.79440  0.110052431319
 H2 0.090055 0.06236 0.44197  0.110052431319
 H2 0.092268 0.076503 0.56252  0.110052431319
 H2 0.181986 0.871614 0.58243  0.110052431319
 H2 0.17671 0.865952 0.46083  0.110052431319
 H2 0.057357 0.042222 0.20902  0.110052431319
 H2 0.069311 0.052174 0.08868  0.110052431319
 H2 0.208379 0.862371 0.09750  0.110052431319
 H2 0.193546 0.861879 0.21765  0.110052431319
 H2 0.372113 0.145021 0.79048  0.110052431319
 H2 0.385564 0.12044 0.90937  0.110052431319
 H2 0.376364 0.909382 0.86670  0.110052431319
 H2 0.367879 0.933985 0.74841  0.110052431319
 H2 0.327619 0.136852 0.45255  0.110052431319
 H2 0.328614 0.131139 0.57402  0.110052431319
 H2 0.412736 0.925182 0.56123  0.110052431319
 H2 0.409415 0.939507 0.44075  0.110052431319
 H2 0.278022 0.132224 0.20142  0.110052431319
 H2 0.273752 0.131967 0.07979  0.110052431319
 H2 0.424807 0.947388 0.09285  0.110052431319
 H2 0.423749 0.956097 0.21410  0.110052431319
 H2 0.249034 0.211652 0.32444  0.110052431319
 H2 0.17904 0.332591 0.32567  0.110052431319
 H2 0.238158 0.787769 0.33008  0.110052431319
 H2 0.309535 0.667268 0.33145  0.110052431319
 H1 0.605 0.471299 0.66259  0.304140288462
 H1 0.674975 0.58538 0.99792  0.304140288462
 H1 0.905809 0.526987 0.66050  0.304140288462
 H1 0.818862 0.418491 0.98593  0.304140288462
 H2 0.649511 0.432457 0.75483  0.110052431319
 H2 0.639156 0.408596 0.87227  0.110052431319
 H2 0.622023 0.619953 0.91137  0.110052431319
 H2 0.637063 0.64358 0.79438  0.110052431319
 H2 0.59007 0.437625 0.44197  0.110052431319
 H2 0.592259 0.423493 0.5625  0.110052431319
 H2 0.68201 0.628359 0.58241  0.110052431319
 H2 0.676755 0.634012 0.46081  0.110052431319
 H2 0.557379 0.457785 0.20902  0.110052431319
 H2 0.569312 0.44784 0.0886  0.110052431319
 H2 0.708393 0.637611 0.09748  0.110052431319
 H2 0.693584 0.638095 0.21764  0.110052431319
 H2 0.872148 0.354991 0.7904  0.110052431319
 H2 0.885608 0.379566 0.90937  0.110052431319
 H2 0.876369 0.590629 0.86670  0.110052431319
 H2 0.867873 0.566031 0.74841  0.110052431319
 H2 0.827599 0.363189 0.4525  0.110052431319
 H2 0.828603 0.368897 0.57402  0.110052431319
 H2 0.912769 0.574829 0.56123  0.110052431319
 H2 0.90944 0.56051 0.44075  0.110052431319
 H2 0.778035 0.367815 0.20143  0.110052431319
 H2 0.773791 0.368054 0.07981  0.110052431319
 H2 0.924833 0.55261 0.09284  0.110052431319
 H2 0.923752 0.543917 0.21409  0.110052431319
 H2 0.749047 0.288318 0.32445  0.110052431319
 H2 0.67905 0.167393 0.32567  0.110052431319
 H2 0.73817 0.712275 0.33008  0.110052431319
 H2 0.809549 0.832761 0.33146  0.110052431319
 H1 0.895042 0.971303 0.33741  0.304140288462
 H1 0.82506 0.08538 0.00207  0.304140288462
 H1 0.594252 0.026984 0.3395  0.304140288462
 H1 0.681235 0.918488 0.01408  0.304140288462
 H2 0.850557 0.932467 0.24517  0.110052431319
 H2 0.860908 0.908599 0.12774  0.110052431319
 H2 0.878016 0.119949 0.08861  0.110052431319
 H2 0.86298 0.143584 0.20560  0.110052431319
 H2 0.909989 0.937647 0.55803  0.110052431319
 H2 0.907776 0.923504 0.43748  0.110052431319
 H2 0.818057 0.128393 0.41757  0.110052431319
 H2 0.823332 0.134055 0.53917  0.110052431319
 H2 0.942687 0.957785 0.79098  0.110052431319
 H2 0.930733 0.947833 0.91132  0.110052431319
 H2 0.791665 0.137636 0.90250  0.110052431319
 H2 0.806497 0.138128 0.78235  0.110052431319
 H2 0.62793 0.854985 0.20952  0.110052431319
 H2 0.61448 0.879566 0.0906  0.110052431319
 H2 0.62368 0.090625 0.13330  0.110052431319
 H2 0.632165 0.066021 0.25159  0.110052431319
 H2 0.672426 0.863155 0.54745  0.110052431319
 H2 0.671431 0.868869 0.42598  0.110052431319
 H2 0.587307 0.074825 0.43877  0.110052431319
 H2 0.590627 0.0605 0.5592  0.110052431319
 H2 0.722021 0.867783 0.7985  0.110052431319
 H2 0.726291 0.868039 0.92021  0.110052431319
 H2 0.575237 0.052619 0.90715  0.110052431319
 H2 0.576295 0.04391 0.78590  0.110052431319
 H2 0.75101 0.788355 0.67556  0.110052431319
 H2 0.821003 0.667416 0.67433  0.110052431319
 H2 0.761885 0.212238 0.66992  0.110052431319
 H2 0.690508 0.33274 0.66855  0.110052431319
 C1 0.340837 0.439021 0.30170  0.536480288462
 C1 0.373369 0.507387 0.02979  0.536480288462
 C2 0.355074 0.459721 0.23295  -0.112444711538
 C3 0.35535 0.526169 0.21114  -0.150478711538
 C3 0.36081 0.53995 0.14510  -0.150478711538
 C2 0.366613 0.488115 0.09956  -0.112444711538
 C3 0.368852 0.421626 0.12193  -0.150478711538
 C3 0.362502 0.407713 0.18774  -0.150478711538
 C4 0.388736 0.521581 0.52531  0.197712788462
 C3 0.387701 0.529248 0.45832  -0.150478711538
 C5 0.361931 0.475169 0.41714  0.324220288462
 C3 0.338038 0.414972 0.44696  -0.150478711538
 C4 0.340977 0.41202 0.51469  0.197712788462
 C4 0.409204 0.503674 0.81777  0.197712788462
 C3 0.403468 0.509013 0.88472  -0.150478711538
 C5 0.361056 0.457572 0.91722  0.324220288462
 C3 0.32606 0.403364 0.87975  -0.150478711538
 C4 0.334024 0.402701 0.81291  0.197712788462
 C1 0.147047 0.562799 0.30856  0.536480288462
 C1 0.118073 0.493137 0.03350  0.536480288462
 C2 0.131991 0.541834 0.23836  -0.112444711538
 C3 0.126835 0.593596 0.19196  -0.150478711538
 C3 0.121486 0.579257 0.12554  -0.150478711538
 C2 0.122242 0.512552 0.10396  -0.112444711538
 C3 0.124696 0.460971 0.15032  -0.150478711538
 C3 0.129327 0.475231 0.21688  -0.150478711538
 C4 0.154328 0.590607 0.52144  0.197712788462
 C3 0.153865 0.587618 0.45385  -0.150478711538
 C5 0.130037 0.526999 0.42214  0.324220288462
 C3 0.107396 0.472693 0.46128  -0.150478711538
 C4 0.109465 0.480487 0.52825  0.197712788462
 C4 0.189788 0.592362 0.82456  0.197712788462
 C3 0.191415 0.592121 0.89221  -0.150478711538
 C5 0.149352 0.539732 0.92401  0.324220288462
 C3 0.107901 0.48914 0.88509  -0.150478711538
 C4 0.109114 0.493835 0.81772  0.197712788462
 C6 0.374726 0.598917 0.67603  0.673415288462
 C6 0.996729 0.156473 0.66881  0.673415288462
 C7 0.387396 0.672277 0.67588  -0.214197211538
 C3 0.322636 0.722184 0.67548  -0.150478711538
 C3 0.360386 0.786885 0.6745  -0.150478711538
 C7 0.45339 0.786056 0.67412  -0.214197211538
 C6 0.139874 0.401106 0.67371  0.673415288462
 C6 0.514831 0.844237 0.67295  0.673415288462
 C7 0.126152 0.32784 0.67233  -0.214197211538
 C3 0.190214 0.277614 0.67069  -0.150478711538
 C3 0.151624 0.213136 0.66961  -0.150478711538
 C7 0.05866 0.214452 0.67011  -0.214197211538
 C1 0.159197 0.939008 0.69831  0.536480288462
 C1 0.126663 0.007389 0.97022  0.536480288462
 C2 0.144961 0.959716 0.76706  -0.112444711538
 C3 0.144675 0.026161 0.78886  -0.150478711538
 C3 0.139216 0.039946 0.85490  -0.150478711538
 C2 0.133427 0.988117 0.90045  -0.112444711538
 C3 0.131191 0.921628 0.87809  -0.150478711538
 C3 0.13754 0.90771 0.81228  -0.150478711538
 C4 0.111291 0.021556 0.47469  0.197712788462
 C3 0.112339 0.02923 0.54168  -0.150478711538
 C5 0.138109 0.97515 0.5828  0.324220288462
 C3 0.161986 0.914942 0.55305  -0.150478711538
 C4 0.159036 0.911985 0.48533  0.197712788462
 C4 0.090817 0.003667 0.18223  0.197712788462
 C3 0.096566 0.009011 0.11529  -0.150478711538
 C5 0.138984 0.957565 0.08279  0.324220288462
 C3 0.173969 0.903345 0.12026  -0.150478711538
 C4 0.165992 0.902678 0.18710  0.197712788462
 C1 0.352987 0.062813 0.69143  0.536480288462
 C1 0.381947 0.99314 0.96650  0.536480288462
 C2 0.368034 0.041841 0.76164  -0.112444711538
 C3 0.373178 0.0936 0.80803  -0.150478711538
 C3 0.378522 0.079259 0.8744  -0.150478711538
 C2 0.377773 0.012553 0.89604  -0.112444711538
 C3 0.375338 0.960976 0.84968  -0.150478711538
 C3 0.370712 0.975239 0.78312  -0.150478711538
 C4 0.34572 0.090634 0.47855  0.197712788462
 C3 0.346179 0.087641 0.54614  -0.150478711538
 C5 0.369992 0.027014 0.5778  0.324220288462
 C3 0.392626 0.972704 0.53872  -0.150478711538
 C4 0.390562 0.980501 0.47174  0.197712788462
 C4 0.310238 0.092383 0.17543  0.197712788462
 C3 0.308596 0.092133 0.10778  -0.150478711538
 C5 0.350655 0.039732 0.07599  0.324220288462
 C3 0.39212 0.98914 0.11491  -0.150478711538
 C4 0.390921 0.993845 0.18228  0.197712788462
 C6 0.1253 0.098903 0.32397  0.673415288462
 C6 0.503334 0.656466 0.33119  0.673415288462
 C7 0.112633 0.172266 0.3241  -0.214197211538
 C3 0.177394 0.22216 0.3245  -0.150478711538
 C3 0.139646 0.286869 0.32545  -0.150478711538
 C7 0.046642 0.286057 0.32588  -0.214197211538
 C6 0.360153 0.901118 0.32629  0.673415288462
 C6 0.985234 0.34425 0.32705  0.673415288462
 C7 0.373879 0.82785 0.32767  -0.214197211538
 C3 0.309816 0.777637 0.32931  -0.150478711538
 C3 0.348404 0.713152 0.33039  -0.150478711538
 C7 0.441368 0.714453 0.3298  -0.214197211538
 C1 0.659206 0.560986 0.69830  0.536480288462
 C1 0.626674 0.49262 0.97021  0.536480288462
 C2 0.644969 0.540285 0.76705  -0.112444711538
 C3 0.644693 0.473838 0.78886  -0.150478711538
 C3 0.639233 0.460057 0.85490  -0.150478711538
 C2 0.633431 0.511892 0.90044  -0.112444711538
 C3 0.631191 0.57838 0.87807  -0.150478711538
 C3 0.637542 0.592294 0.81226  -0.150478711538
 C4 0.611307 0.478426 0.47469  0.197712788462
 C3 0.612342 0.470759 0.54168  -0.150478711538
 C5 0.638112 0.524837 0.58286  0.324220288462
 C3 0.662005 0.585035 0.55304  -0.150478711538
 C4 0.659066 0.587986 0.48531  0.197712788462
 C4 0.590839 0.496334 0.18223  0.197712788462
 C3 0.596576 0.490994 0.11528  -0.150478711538
 C5 0.638988 0.542435 0.08278  0.324220288462
 C3 0.673983 0.596643 0.12025  -0.150478711538
 C4 0.666019 0.597307 0.18709  0.197712788462
 C1 0.852997 0.437208 0.69144  0.536480288462
 C1 0.881971 0.50687 0.96650  0.536480288462
 C2 0.868053 0.458173 0.76164  -0.112444711538
 C3 0.873208 0.406411 0.80804  -0.150478711538
 C3 0.878558 0.42075 0.87446  -0.150478711538
 C2 0.877802 0.487455 0.89604  -0.112444711538
 C3 0.875348 0.539036 0.84968  -0.150478711538
 C3 0.870717 0.524776 0.78312  -0.150478711538
 C4 0.845715 0.4094 0.47856  0.197712788462
 C3 0.846178 0.412389 0.54615  -0.150478711538
 C5 0.870007 0.473008 0.57786  0.324220288462
 C3 0.892648 0.527314 0.53872  -0.150478711538
 C4 0.890579 0.51952 0.47175  0.197712788462
 C4 0.810256 0.407646 0.17544  0.197712788462
 C3 0.808629 0.407886 0.10779  -0.150478711538
 C5 0.850692 0.460275 0.07599  0.324220288462
 C3 0.892142 0.510867 0.1149  -0.150478711538
 C4 0.89093 0.506172 0.18228  0.197712788462
 C6 0.625318 0.40109 0.32397  0.673415288462
 C6 0.003314 0.843534 0.33119  0.673415288462
 C7 0.612648 0.32773 0.32412  -0.214197211538
 C3 0.677408 0.277823 0.32452  -0.150478711538
 C3 0.639658 0.213122 0.32545  -0.150478711538
 C7 0.546654 0.213951 0.32588  -0.214197211538
 C6 0.860169 0.598901 0.32629  0.673415288462
 C6 0.485213 0.15577 0.32705  0.673415288462
 C7 0.873891 0.672167 0.32767  -0.214197211538
 C3 0.809829 0.722393 0.32931  -0.150478711538
 C3 0.84842 0.786871 0.33039  -0.150478711538
 C7 0.941383 0.785555 0.32989  -0.214197211538
 C1 0.840846 0.060999 0.30169  0.536480288462
 C1 0.87338 0.992618 0.02978  0.536480288462
 C2 0.855082 0.040292 0.23294  -0.112444711538
 C3 0.855369 0.973846 0.21114  -0.150478711538
 C3 0.860828 0.960061 0.14510  -0.150478711538
 C2 0.866617 0.01189 0.09955  -0.112444711538
 C3 0.868852 0.078379 0.12191  -0.150478711538
 C3 0.862504 0.092297 0.18772  -0.150478711538
 C4 0.888752 0.978451 0.52531  0.197712788462
 C3 0.887705 0.970777 0.45832  -0.150478711538
 C5 0.861935 0.024857 0.41714  0.324220288462
 C3 0.838056 0.085065 0.44695  -0.150478711538
 C4 0.841006 0.088022 0.5146  0.197712788462
 C4 0.909226 0.99634 0.81777  0.197712788462
 C3 0.903477 0.990996 0.88471  -0.150478711538
 C5 0.861059 0.042443 0.91721  0.324220288462
 C3 0.826074 0.096662 0.87974  -0.150478711538
 C4 0.834051 0.09733 0.81290  0.197712788462
 C1 0.647056 0.937194 0.30857  0.536480288462
 C1 0.618096 0.006867 0.03350  0.536480288462
 C2 0.632009 0.958166 0.23836  -0.112444711538
 C3 0.626865 0.906407 0.19197  -0.150478711538
 C3 0.621521 0.920748 0.1255  -0.150478711538
 C2 0.62227 0.987454 0.10396  -0.112444711538
 C3 0.624706 0.039031 0.15032  -0.150478711538
 C3 0.629332 0.024768 0.21688  -0.150478711538
 C4 0.654324 0.909374 0.52145  0.197712788462
 C3 0.653865 0.912366 0.45386  -0.150478711538
 C5 0.630052 0.972993 0.42215  0.324220288462
 C3 0.607416 0.027303 0.46128  -0.150478711538
 C4 0.60948 0.019506 0.52826  0.197712788462
 C4 0.689805 0.907624 0.82457  0.197712788462
 C3 0.691447 0.907874 0.89222  -0.150478711538
 C5 0.649389 0.960275 0.92401  0.324220288462
 C3 0.607924 0.010867 0.88509  -0.150478711538
 C4 0.609123 0.006162 0.8177  0.197712788462
 C6 0.874744 0.901104 0.67603  0.673415288462
 C6 0.496709 0.343541 0.66881  0.673415288462
 C7 0.887411 0.827742 0.67589  -0.214197211538
 C3 0.822649 0.777847 0.67549  -0.150478711538
 C3 0.860397 0.713138 0.67455  -0.150478711538
 C7 0.953401 0.71395 0.67413  -0.214197211538
 C6 0.63989 0.09889 0.67371  0.673415288462
 C6 0.01481 0.655758 0.67295  0.673415288462
 C7 0.626164 0.172157 0.67233  -0.214197211538
 C3 0.690227 0.22237 0.67069  -0.150478711538
 C3 0.651639 0.286856 0.6696  -0.150478711538
 C7 0.558675 0.285554 0.67012  -0.214197211538
 S1 0.018366 0.295496 0.67200  0.150410288462
 S1 0.4947 0.70522 0.67482  0.150410288462
 S1 0.481663 0.795488 0.32800  0.150410288462
 S1 0.005329 0.20523 0.32517  0.150410288462
 S1 0.981677 0.704511 0.32800  0.150410288462
 S1 0.505343 0.294787 0.32518  0.150410288462
 S1 0.51838 0.204519 0.67200  0.150410288462
 S1 0.994714 0.794777 0.67483  0.150410288462
 N1 0.363162 0.485083 0.35002  -0.411297211538
 N2 0.365524 0.463944 0.55414  -0.365117211538
 N1 0.352988 0.456797 0.98454  -0.411297211538
 N2 0.375022 0.45209 0.78174  -0.365117211538
 N1 0.126231 0.516807 0.35487  -0.411297211538
 N2 0.132977 0.538396 0.55894  -0.365117211538
 N1 0.150353 0.541097 0.99207  -0.411297211538
 N2 0.149111 0.544088 0.78711  -0.365117211538
 N1 0.136883 0.985072 0.64998  -0.411297211538
 N2 0.134494 0.963913 0.4458  -0.365117211538
 N1 0.14706 0.956791 0.01547  -0.411297211538
 N2 0.124992 0.952074 0.21827  -0.365117211538
 N1 0.373795 0.016817 0.64513  -0.411297211538
 N2 0.367059 0.038417 0.44105  -0.365117211538
 N1 0.349645 0.04109 0.00792  -0.411297211538
 N2 0.350924 0.044108 0.21289  -0.365117211538
 N1 0.636881 0.514924 0.64998  -0.411297211538
 N2 0.634519 0.536063 0.44586  -0.365117211538
 N1 0.647056 0.54321 0.01546  -0.411297211538
 N2 0.625021 0.547918 0.21826  -0.365117211538
 N1 0.873812 0.4832 0.64513  -0.411297211538
 N2 0.867066 0.461611 0.44106  -0.365117211538
 N1 0.84969 0.45891 0.00793  -0.411297211538
 N2 0.850933 0.455919 0.21289  -0.365117211538
 N1 0.86316 0.014936 0.35002  -0.411297211538
 N2 0.86555 0.036094 0.5541  -0.365117211538
 N1 0.852983 0.043216 0.98453  -0.411297211538
 N2 0.875051 0.047933 0.78173  -0.365117211538
 N1 0.626248 0.98319 0.35487  -0.411297211538
 N2 0.632984 0.96159 0.55895  -0.365117211538
 N1 0.650399 0.958917 0.99208  -0.411297211538
 N2 0.64912 0.955899 0.78711  -0.365117211538
 O1 0.308444 0.383422 0.31183  -0.488167211538
 O1 0.394627 0.564341 0.01366  -0.488167211538
 O1 0.179009 0.618609 0.32202  -0.488167211538
 O1 0.089628 0.4382 0.01399  -0.488167211538
 O2 0.218624 0.425308 0.67215  -0.612099711538
 O2 0.069937 0.437978 0.67598  -0.612099711538
 O2 0.912276 0.16653 0.66694  -0.612099711538
 O1 0.030713 0.097483 0.66955  -0.488167211538
 O2 0.295969 0.574109 0.67516  -0.612099711538
 O2 0.44534 0.562414 0.67647  -0.612099711538
 O2 0.599164 0.8341 0.67248  -0.612099711538
 O1 0.480785 0.903101 0.67248  -0.488167211538
 O1 0.19158 0.883399 0.68819  -0.488167211538
 O1 0.105399 0.064346 0.98634  -0.488167211538
 O1 0.321038 0.118634 0.67798  -0.488167211538
 O1 0.410402 0.938201 0.98601  -0.488167211538
 O2 0.2814 0.925325 0.3278  -0.612099711538
 O2 0.430087 0.937983 0.32402  -0.612099711538
 O2 0.587786 0.666514 0.33306  -0.612099711538
 O1 0.469324 0.59748 0.33045  -0.488167211538
 O2 0.204053 0.074076 0.32483  -0.612099711538
 O2 0.054685 0.062415 0.32354  -0.612099711538
 O2 0.9009 0.334127 0.32752  -0.612099711538
 O1 0.019247 0.403107 0.32752  -0.488167211538
 O1 0.6916 0.616584 0.68817  -0.488167211538
 O1 0.605417 0.435666 0.98634  -0.488167211538
 O1 0.821034 0.381398 0.6779  -0.488167211538
 O1 0.910416 0.561806 0.98601  -0.488167211538
 O2 0.781419 0.574699 0.32785  -0.612099711538
 O2 0.930107 0.562029 0.32402  -0.612099711538
 O2 0.087767 0.833477 0.33306  -0.612099711538
 O1 0.969331 0.902524 0.33045  -0.488167211538
 O2 0.704074 0.425898 0.32484  -0.612099711538
 O2 0.554703 0.437593 0.3235  -0.612099711538
 O2 0.40088 0.165907 0.32752  -0.612099711538
 O1 0.519258 0.096906 0.32752  -0.488167211538
 O1 0.808464 0.116608 0.31181  -0.488167211538
 O1 0.894645 0.935662 0.01366  -0.488167211538
 O1 0.679006 0.881373 0.32202  -0.488167211538
 O1 0.589642 0.061806 0.01399  -0.488167211538
 O2 0.718643 0.074682 0.6721  -0.612099711538
 O2 0.569957 0.062024 0.67598  -0.612099711538
 O2 0.412257 0.333493 0.66694  -0.612099711538
 O1 0.530719 0.402526 0.66955  -0.488167211538
 O2 0.79599 0.925931 0.67517  -0.612099711538
 O2 0.945359 0.937592 0.67646  -0.612099711538
 O2 0.099143 0.66588 0.67248  -0.612099711538
 O1 0.980797 0.596901 0.67248  -0.488167211538
