#======================================================================

# CRYSTAL DATA

#----------------------------------------------------------------------

data_VESTA_phase_1


_pd_phase_name                         MOF
_cell_length_a                         13.99600
_cell_length_b                         14.62200
_cell_length_c                         18.58500
_cell_angle_alpha                      69.12400
_cell_angle_beta                       67.88000
_cell_angle_gamma                      61.40600
_symmetry_space_group_name_H-M         "P 1"
_symmetry_Int_Tables_number            1

loop_
_symmetry_equiv_pos_as_xyz
   "x, y, z"

loop_
   _atom_site_label
   _atom_site_fract_x
   _atom_site_fract_y
   _atom_site_fract_z
 _atom_site_charge
 Zn1 0.363761 0.440942 0.10180  0.966231394231
 Zn2 0.551173 0.245615 0.31401  0.967556394231
 Zn1 0.8943 0.05356 0.41561  0.966231394231
 Zn1 0.110824 0.247932 0.2041  0.966231394231
 Zn1 0.606988 0.548771 0.93217  0.966231394231
 Zn2 0.419575 0.744104 0.7199  0.967556394231
 Zn1 0.076463 0.936137 0.61836  0.966231394231
 Zn1 0.859933 0.741793 0.82982  0.966231394231
 H1 0.459927 0.601288 0.21039  0.103044429945
 H1 0.568291 0.662024 0.25115  0.103044429945
 H1 0.77164 0.546369 0.24735  0.103044429945
 H1 0.886858 0.022282 0.1923  0.103044429945
 H1 0.905003 0.049278 0.04793  0.103044429945
 H1 0.819285 0.218514 0.  0.103044429945
 H1 0.343187 0.355974 0.  0.103044429945
 H1 0.451726 0.202776 0.93850  0.103044429945
 H1 0.676499 0.073494 0.06821  0.103044429945
 H1 0.561525 0.232594 0.12765  0.103044429945
 H1 0.899951 0.851231 0.91698  0.103044429945
 H1 0.797229 0.99692 0.98542  0.103044429945
 H1 0.494847 0.022086 0.95257  0.103044429945
 H1 0.610268 0.875553 0.88573  0.103044429945
 H1 0.269095 0.899686 0.30652  0.103044429945
 H1 0.478904 0.839882 0.26578  0.103044429945
 H1 0.561822 0.955722 0.27048  0.103044429945
 H1 0.103103 0.471686 0.32540  0.103044429945
 H1 0.004222 0.444885 0.46990  0.103044429945
 H1 0.035555 0.258338 0.55006  0.103044429945
 H1 0.689276 0.122341 0.54506  0.103044429945
 H1 0.57826 0.275729 0.61298  0.103044429945
 H1 0.80931 0.420236 0.44846  0.103044429945
 H1 0.911064 0.261123 0.38928  0.103044429945
 H1 0.656393 0.631968 0.63316  0.103044429945
 H1 0.768516 0.478425 0.56530  0.103044429945
 H1 0.455993 0.457601 0.59859  0.103044429945
 H1 0.35747 0.611666 0.66484  0.103044429945
 H1 0.510833 0.38843 0.82358  0.103044429945
 H1 0.40247 0.327687 0.78282  0.103044429945
 H1 0.19912 0.443339 0.78662  0.103044429945
 H1 0.083903 0.967432 0.84163  0.103044429945
 H1 0.065763 0.940433 0.98604  0.103044429945
 H1 0.151481 0.771195 0.03236  0.103044429945
 H1 0.627567 0.633744 0.02742  0.103044429945
 H1 0.51903 0.786947 0.09547  0.103044429945
 H1 0.294256 0.91622 0.96576  0.103044429945
 H1 0.409229 0.757115 0.90633  0.103044429945
 H1 0.070808 0.138492 0.11699  0.103044429945
 H1 0.173527 0.992804 0.04855  0.103044429945
 H1 0.475912 0.967635 0.081  0.103044429945
 H1 0.360493 0.114166 0.14824  0.103044429945
 H1 0.701667 0.090021 0.72745  0.103044429945
 H1 0.491859 0.149825 0.76818  0.103044429945
 H1 0.408942 0.033987 0.76348  0.103044429945
 H1 0.867659 0.518018 0.7085  0.103044429945
 H1 0.966551 0.544804 0.56409  0.103044429945
 H1 0.935225 0.731345 0.48392  0.103044429945
 H1 0.281472 0.867363 0.48891  0.103044429945
 H1 0.392489 0.713976 0.42099  0.103044429945
 H1 0.16146 0.569452 0.58553  0.103044429945
 H1 0.059704 0.728566 0.6447  0.103044429945
 H1 0.314364 0.357738 0.40082  0.103044429945
 H1 0.202242 0.511272 0.46868  0.103044429945
 H1 0.514763 0.532108 0.43538  0.103044429945
 H1 0.613286 0.378049 0.36912  0.103044429945
 C1 0.528753 0.420835 0.16840  0.675485144231
 C2 0.600473 0.455889 0.18622  -0.0264104807692
 C3 0.548484 0.553335 0.2094  -0.127418105769
 C3 0.609017 0.58684 0.23182  -0.127418105769
 C3 0.721698 0.522971 0.2300  -0.127418105769
 C2 0.776472 0.426957 0.20382  -0.0264104807692
 C2 0.71613 0.391788 0.18099  -0.0264104807692
 C1 0.899589 0.368371 0.20023  0.675485144231
 C1 0.79601 0.163235 0.27929  0.675485144231
 C2 0.80711 0.189534 0.19155  -0.0264104807692
 C3 0.8574 0.102304 0.15557  -0.127418105769
 C3 0.867352 0.117796 0.0751  -0.127418105769
 C3 0.827391 0.221151 0.03025  -0.127418105769
 C2 0.780413 0.309656 0.06437  -0.0264104807692
 C2 0.769722 0.295057 0.14608  -0.0264104807692
 C1 0.743403 0.419441 0.01071  0.675485144231
 C4 0.4159 0.287585 0.  0.201155144231
 C3 0.476237 0.201159 0.98819  -0.127418105769
 C2 0.568834 0.115254 0.  -0.0264104807692
 C3 0.607413 0.138086 0.043  -0.127418105769
 C4 0.543484 0.226817 0.0776  0.201155144231
 C4 0.809017 0.893139 0.92677  0.201155144231
 C3 0.748409 0.977739 0.96520  -0.127418105769
 C2 0.635796 0.023192 0.97515  -0.0264104807692
 C3 0.580951 0.992726 0.94599  -0.127418105769
 C4 0.646732 0.906929 0.90894  0.201155144231
 C1 0.118911 0.072457 0.34932  0.675485144231
 C2 0.243485 0.037847 0.33131  -0.0264104807692
 C3 0.308298 0.947828 0.30779  -0.127418105769
 C3 0.4247 0.914826 0.28540  -0.127418105769
 C3 0.471209 0.978826 0.28766  -0.127418105769
 C2 0.407613 0.067443 0.31414  -0.0264104807692
 C2 0.289304 0.102211 0.33679  -0.0264104807692
 C1 0.468042 0.126121 0.3183  0.675485144231
 C1 0.238791 0.330692 0.2382  0.675485144231
 C2 0.188784 0.304448 0.32611  -0.0264104807692
 C3 0.116526 0.391706 0.36216  -0.127418105769
 C3 0.061631 0.376316 0.44265  -0.127418105769
 C3 0.079383 0.273043 0.48745  -0.127418105769
 C2 0.154388 0.184477 0.45327  -0.0264104807692
 C2 0.211071 0.198962 0.37162  -0.0264104807692
 C1 0.172242 0.074752 0.50676  0.675485144231
 C4 0.712494 0.190239 0.52682  0.201155144231
 C3 0.650901 0.276773 0.56319  -0.127418105769
 C2 0.684352 0.362086 0.53718  -0.0264104807692
 C3 0.779602 0.35611 0.47324  -0.127418105769
 C4 0.837404 0.267324 0.43937  0.201155144231
 C4 0.61612 0.590808 0.6236  0.201155144231
 C3 0.677347 0.505866 0.58553  -0.127418105769
 C2 0.621671 0.45429 0.57583  -0.0264104807692
 C3 0.504332 0.493254 0.60494  -0.127418105769
 C4 0.448504 0.579286 0.64167  0.201155144231
 C1 0.442005 0.568884 0.8655  0.675485144231
 C2 0.370286 0.533829 0.84775  -0.0264104807692
 C3 0.422277 0.436382 0.82455  -0.127418105769
 C3 0.361743 0.402872 0.80215  -0.127418105769
 C3 0.249062 0.46674 0.80395  -0.127418105769
 C2 0.194287 0.562757 0.83015  -0.0264104807692
 C2 0.254628 0.597927 0.85298  -0.0264104807692
 C1 0.07117 0.621341 0.83374  0.675485144231
 C1 0.174742 0.826483 0.75468  0.675485144231
 C2 0.163648 0.800182 0.84242  -0.0264104807692
 C3 0.113361 0.88741 0.87840  -0.127418105769
 C3 0.103413 0.871916 0.95886  -0.127418105769
 C3 0.143373 0.768559 0.  -0.127418105769
 C2 0.190348 0.680056 0.96960  -0.0264104807692
 C2 0.201036 0.694658 0.8878  -0.0264104807692
 C1 0.227355 0.570271 0.  0.675485144231
 C4 0.554854 0.702132 0.0093  0.201155144231
 C3 0.494519 0.788561 0.0457  -0.127418105769
 C2 0.401922 0.874465 0.02001  -0.0264104807692
 C3 0.363343 0.851629 0.99028  -0.127418105769
 C4 0.42727 0.762895 0.95629  0.201155144231
 C4 0.161742 0.096582 0.10720  0.201155144231
 C3 0.222349 0.011983 0.06877  -0.127418105769
 C2 0.334961 0.96653 0.05882  -0.0264104807692
 C3 0.389808 0.996995 0.08798  -0.127418105769
 C4 0.324028 0.082791 0.1250  0.201155144231
 C1 0.851854 0.917253 0.6846  0.675485144231
 C2 0.72728 0.951859 0.70265  -0.0264104807692
 C3 0.662466 0.041879 0.7261  -0.127418105769
 C3 0.546064 0.074882 0.74857  -0.127418105769
 C3 0.499556 0.010882 0.74630  -0.127418105769
 C2 0.563152 0.922264 0.71982  -0.0264104807692
 C2 0.681461 0.887495 0.69717  -0.0264104807692
 C1 0.502723 0.863588 0.7156  0.675485144231
 C1 0.731966 0.659024 0.79569  0.675485144231
 C2 0.781978 0.685259 0.70786  -0.0264104807692
 C3 0.854239 0.597995 0.6718  -0.127418105769
 C3 0.909139 0.613377 0.59133  -0.127418105769
 C3 0.891394 0.716647 0.5465  -0.127418105769
 C2 0.816385 0.805218 0.58070  -0.0264104807692
 C2 0.759698 0.790741 0.66235  -0.0264104807692
 C1 0.798534 0.91494 0.52720  0.675485144231
 C4 0.258258 0.799462 0.50715  0.201155144231
 C3 0.319852 0.712929 0.47078  -0.127418105769
 C2 0.286406 0.627613 0.49679  -0.0264104807692
 C3 0.191162 0.633582 0.56074  -0.127418105769
 C4 0.133359 0.722368 0.59461  0.201155144231
 C4 0.354636 0.398898 0.41035  0.201155144231
 C3 0.29341 0.483835 0.44845  -0.127418105769
 C2 0.349088 0.535412 0.4581  -0.0264104807692
 C3 0.466425 0.496453 0.42903  -0.127418105769
 C4 0.522252 0.410425 0.39229  0.201155144231
 N1 0.455357 0.309592 0.05147  -0.343561105769
 N1 0.759078 0.858129 0.89884  -0.343561105769
 N1 0.805023 0.185057 0.46584  -0.343561105769
 N1 0.503158 0.62712 0.65150  -0.343561105769
 N1 0.515398 0.680122 0.98251  -0.343561105769
 N1 0.211683 0.131591 0.13513  -0.343561105769
 N1 0.165734 0.804639 0.56814  -0.343561105769
 N1 0.467597 0.362592 0.38247  -0.343561105769
 O1 0.471436 0.484775 0.11820  -0.591700034341
 O1 0.526312 0.329447 0.2050  -0.591700034341
 O1 0.702399 0.208466 0.32640  -0.591700034341
 O1 0.883105 0.093366 0.30297  -0.591700034341
 O2 0.941254 0.389632 0.23934  -0.568483605769
 O1 0.961349 0.296695 0.15886  -0.591700034341
 O2 0.756981 0.492874 0.01873  -0.568483605769
 O1 0.685797 0.408567 0.99231  -0.591700034341
 O1 0.075431 0.008417 0.39942  -0.591700034341
 O1 0.061447 0.163904 0.3128  -0.591700034341
 O1 0.237168 0.285374 0.19138  -0.591700034341
 O1 0.2797 0.400593 0.21435  -0.591700034341
 O1 0.570395 0.104676 0.27970  -0.591700034341
 O1 0.416367 0.197958 0.3595  -0.591700034341
 O2 0.26679 0.00059 0.49914  -0.568483605769
 O1 0.080414 0.068985 0.55862  -0.591700034341
 O1 0.499316 0.504947 0.91577  -0.591700034341
 O1 0.444446 0.660272 0.82891  -0.591700034341
 O1 0.268349 0.781255 0.70757  -0.591700034341
 O1 0.087645 0.896353 0.73101  -0.591700034341
 O2 0.02951 0.600079 0.79463  -0.568483605769
 O1 0.00941 0.69302 0.87510  -0.591700034341
 O2 0.213777 0.496839 0.  -0.568483605769
 O1 0.284959 0.581144 0.04166  -0.591700034341
 O1 0.895332 0.981291 0.6345  -0.591700034341
 O1 0.909322 0.825815 0.72111  -0.591700034341
 O1 0.733594 0.704344 0.84259  -0.591700034341
 O1 0.691049 0.589129 0.81963  -0.591700034341
 O1 0.400372 0.88503 0.75427  -0.591700034341
 O1 0.554392 0.791757 0.67445  -0.591700034341
 O2 0.703987 0.989103 0.5348  -0.568483605769
 O1 0.890364 0.920705 0.47534  -0.591700034341
