#======================================================================

# CRYSTAL DATA

#----------------------------------------------------------------------

data_VESTA_phase_1


_pd_phase_name                         MOF
_cell_length_a                         14.27300
_cell_length_b                         15.94000
_cell_length_c                         19.73000
_cell_angle_alpha                      110.74300
_cell_angle_beta                       89.83300
_cell_angle_gamma                      116.78400
_symmetry_space_group_name_H-M         "P 1"
_symmetry_Int_Tables_number            1

loop_
_symmetry_equiv_pos_as_xyz
   "x, y, z"

loop_
   _atom_site_label
   _atom_site_fract_x
   _atom_site_fract_y
   _atom_site_fract_z
 _atom_site_charge
 Zn1 0.090657 0.456249 0.89493  0.973283009259
 Zn1 0.554954 0.460285 0.19001  0.973283009259
 Zn1 0.635388 0.544101 0.60554  0.973283009259
 Zn1 0.094539 0.539755 0.30968  0.973283009259
 Zn1 0.909356 0.543768 0.10490  0.973283009259
 Zn1 0.445083 0.539748 0.80984  0.973283009259
 Zn1 0.364613 0.455873 0.39426  0.973283009259
 Zn1 0.905485 0.460276 0.69017  0.973283009259
 H1 0.523907 0.779376 0.71979  0.104029616402
 H1 0.399957 0.854082 0.7413  0.104029616402
 H1 0.202679 0.73616 0.71837  0.104029616402
 H1 0.160453 0.249183 0.70721  0.104029616402
 H1 0.167527 0.154412 0.57731  0.104029616402
 H1 0.226246 0.24785 0.49346  0.104029616402
 H1 0.156097 0.632939 0.04138  0.104029616402
 H1 0.246789 0.823329 0.08858  0.104029616402
 H1 0.24916 0.795037 0.86249  0.104029616402
 H1 0.14983 0.605125 0.82349  0.104029616402
 H1 0.340508 0.30353 0.18026  0.104029616402
 H1 0.234798 0.11162 0.13560  0.104029616402
 H1 0.502163 0.0953 0.04042  0.104029616402
 H1 0.600006 0.288079 0.09353  0.104029616402
 H1 0.742845 0.220824 0.7805  0.104029616402
 H1 0.543914 0.146439 0.75911  0.104029616402
 H1 0.465424 0.264548 0.78201  0.104029616402
 H1 0.912707 0.750953 0.79264  0.104029616402
 H1 0.0 0.84574 0.92222  0.104029616402
 H1 0.980499 0.752377 0.00602  0.104029616402
 H1 0.521986 0.367756 0.45891  0.104029616402
 H1 0.422281 0.177366 0.41141  0.104029616402
 H1 0.454776 0.204804 0.63715  0.104029616402
 H1 0.545357 0.394763 0.6765  0.104029616402
 H1 0.037361 0.695912 0.31900  0.104029616402
 H1 0.123538 0.887744 0.36366  0.104029616402
 H1 0.407136 0.905551 0.45943  0.104029616402
 H1 0.31225 0.71281 0.40635  0.104029616402
 H1 0.476115 0.220632 0.28004  0.104029616402
 H1 0.600056 0.145917 0.25844  0.104029616402
 H1 0.797334 0.26383 0.28143  0.104029616402
 H1 0.839534 0.750826 0.29262  0.104029616402
 H1 0.832467 0.845585 0.42253  0.104029616402
 H1 0.773787 0.752136 0.50637  0.104029616402
 H1 0.843917 0.367083 0.95845  0.104029616402
 H1 0.753243 0.176694 0.91125  0.104029616402
 H1 0.750873 0.204971 0.13733  0.104029616402
 H1 0.850179 0.394887 0.17634  0.104029616402
 H1 0.659509 0.696484 0.81958  0.104029616402
 H1 0.765215 0.888393 0.86421  0.104029616402
 H1 0.497866 0.904728 0.95941  0.104029616402
 H1 0.400027 0.711948 0.90633  0.104029616402
 H1 0.257175 0.779193 0.21932  0.104029616402
 H1 0.456105 0.853579 0.24075  0.104029616402
 H1 0.534598 0.735469 0.21782  0.104029616402
 H1 0.087283 0.249074 0.20719  0.104029616402
 H1 0.984789 0.15428 0.07760  0.104029616402
 H1 0.01952 0.247633 0.99380  0.104029616402
 H1 0.477998 0.63222 0.54091  0.104029616402
 H1 0.57768 0.822609 0.58843  0.104029616402
 H1 0.5452 0.795217 0.36270  0.104029616402
 H1 0.454647 0.605258 0.32327  0.104029616402
 H1 0.962647 0.304086 0.68084  0.104029616402
 H1 0.876457 0.112255 0.63617  0.104029616402
 H1 0.592857 0.094476 0.54043  0.104029616402
 H1 0.687758 0.287216 0.59351  0.104029616402
 C1 0.475399 0.58409 0.67593  0.673481759259
 C2 0.398009 0.625046 0.68928  -0.0674528240741
 C3 0.437934 0.730444 0.71159  -0.141615990741
 C3 0.368758 0.771792 0.7233  -0.141615990741
 C3 0.259335 0.706783 0.71107  -0.141615990741
 C2 0.217731 0.600695 0.68730  -0.0674528240741
 C2 0.287242 0.558032 0.67619  -0.0674528240741
 C1 0.098933 0.535206 0.67343  0.673481759259
 C1 0.21338 0.442486 0.77519  0.673481759259
 C2 0.21718 0.392293 0.69569  -0.0674528240741
 C3 0.185875 0.287875 0.66947  -0.141615990741
 C3 0.18974 0.235251 0.5970  -0.141615990741
 C3 0.222297 0.286829 0.55031  -0.141615990741
 C2 0.250787 0.390695 0.57458  -0.0674528240741
 C2 0.249353 0.445334 0.64847  -0.0674528240741
 C1 0.280932 0.440144 0.51940  0.673481759259
 C4 0.176907 0.671314 0.00344  0.217433009259
 C3 0.227363 0.777291 0.02959  -0.141615990741
 C5 0.255292 0.823456 0.97883  0.235145509259
 C3 0.22873 0.761546 0.90337  -0.141615990741
 C4 0.174979 0.656105 0.88148  0.217433009259
 C4 0.373107 0.254317 0.14972  0.217433009259
 C3 0.314934 0.148573 0.12450  -0.141615990741
 C5 0.359915 0.089568 0.08313  0.235145509259
 C3 0.463986 0.139024 0.07069  -0.141615990741
 C4 0.518197 0.245264 0.09985  0.217433009259
 C1 0.89085 0.416088 0.8241  0.673481759259
 C2 0.772323 0.375239 0.81095  -0.0674528240741
 C3 0.706206 0.269878 0.78874  -0.141615990741
 C3 0.595522 0.228699 0.77702  -0.141615990741
 C3 0.551574 0.293816 0.78930  -0.141615990741
 C2 0.616689 0.399879 0.81299  -0.0674528240741
 C2 0.729037 0.442361 0.8240  -0.0674528240741
 C1 0.563823 0.4655 0.82682  0.673481759259
 C1 0.77138 0.557545 0.72496  0.673481759259
 C2 0.825638 0.60792 0.80433  -0.0674528240741
 C3 0.899294 0.712301 0.83038  -0.141615990741
 C3 0.956181 0.764925 0.90261  -0.141615990741
 C3 0.93712 0.713382 0.94935  -0.141615990741
 C2 0.86114 0.609576 0.92527  -0.0674528240741
 C2 0.804542 0.554981 0.85159  -0.0674528240741
 C1 0.841815 0.560156 0.98044  0.673481759259
 C4 0.504804 0.329224 0.49672  0.217433009259
 C3 0.449282 0.223218 0.47039  -0.141615990741
 C5 0.431666 0.176793 0.52096  0.235145509259
 C3 0.467424 0.238493 0.59643  -0.141615990741
 C4 0.519102 0.343963 0.61853  0.217433009259
 C4 0.119152 0.745414 0.3496  0.217433009259
 C3 0.16671 0.851128 0.37488  -0.141615990741
 C5 0.27064 0.910547 0.41643  0.235145509259
 C3 0.325259 0.861519 0.42901  -0.141615990741
 C4 0.273248 0.755282 0.3998  0.217433009259
 C1 0.524634 0.415924 0.32389  0.673481759259
 C2 0.602017 0.37496 0.31054  -0.0674528240741
 C3 0.562088 0.26956 0.28824  -0.141615990741
 C3 0.631257 0.228206 0.27643  -0.141615990741
 C3 0.740681 0.29321 0.2887  -0.141615990741
 C2 0.78229 0.399298 0.31251  -0.0674528240741
 C2 0.712784 0.441967 0.3236  -0.0674528240741
 C1 0.901088 0.464783 0.32638  0.673481759259
 C1 0.786648 0.557521 0.22465  0.673481759259
 C2 0.782834 0.607715 0.30414  -0.0674528240741
 C3 0.814126 0.71213 0.33036  -0.141615990741
 C3 0.810265 0.764748 0.40277  -0.141615990741
 C3 0.777728 0.713164 0.44952  -0.141615990741
 C2 0.749254 0.609302 0.42524  -0.0674528240741
 C2 0.750675 0.554667 0.35136  -0.0674528240741
 C1 0.719129 0.559841 0.4804  0.673481759259
 C4 0.823112 0.328706 0.99639  0.217433009259
 C3 0.772666 0.22273 0.97023  -0.141615990741
 C5 0.74474 0.176561 0.02100  0.235145509259
 C3 0.771299 0.238466 0.09646  -0.141615990741
 C4 0.825038 0.343908 0.11835  0.217433009259
 C4 0.626913 0.745701 0.85012  0.217433009259
 C3 0.685083 0.851443 0.87532  -0.141615990741
 C5 0.640105 0.910451 0.916  0.235145509259
 C3 0.53604 0.861001 0.92914  -0.141615990741
 C4 0.48183 0.754762 0.89999  0.217433009259
 C1 0.109169 0.583918 0.17568  0.673481759259
 C2 0.227698 0.624773 0.18887  -0.0674528240741
 C3 0.293815 0.730137 0.21110  -0.141615990741
 C3 0.404499 0.771316 0.22282  -0.141615990741
 C3 0.448447 0.706198 0.21053  -0.141615990741
 C2 0.383333 0.600134 0.18682  -0.0674528240741
 C2 0.270985 0.557652 0.17577  -0.0674528240741
 C1 0.436193 0.534507 0.17300  0.673481759259
 C1 0.228631 0.44248 0.27486  0.673481759259
 C2 0.174367 0.392101 0.19549  -0.0674528240741
 C3 0.100705 0.287723 0.16945  -0.141615990741
 C3 0.043822 0.235094 0.09722  -0.141615990741
 C3 0.062891 0.286631 0.05047  -0.141615990741
 C2 0.138878 0.390434 0.07455  -0.0674528240741
 C2 0.195472 0.445034 0.14823  -0.0674528240741
 C1 0.158198 0.43985 0.01938  0.673481759259
 C4 0.495181 0.670761 0.50310  0.217433009259
 C3 0.55069 0.776769 0.52944  -0.141615990741
 C5 0.568308 0.823209 0.47889  0.235145509259
 C3 0.532556 0.761518 0.40341  -0.141615990741
 C4 0.480893 0.656046 0.38130  0.217433009259
 C4 0.880852 0.254591 0.6501  0.217433009259
 C3 0.833285 0.148875 0.62496  -0.141615990741
 C5 0.729348 0.089462 0.58342  0.235145509259
 C3 0.674737 0.1385 0.57085  -0.141615990741
 C4 0.726757 0.244739 0.59999  0.217433009259
 N1 0.151733 0.611587 0.93055  -0.356346990741
 N2 0.314129 0.930925 0.99940  -0.0848669907407
 N2 0.29676 0.982086 0.059  -0.0848669907407
 N1 0.47359 0.301948 0.13803  -0.356346990741
 N1 0.539936 0.388726 0.56962  -0.356346990741
 N2 0.383281 0.069346 0.50020  -0.0848669907407
 N2 0.314826 0.017978 0.4403  -0.0848669907407
 N1 0.171976 0.698195 0.36154  -0.356346990741
 N1 0.848278 0.388429 0.0692  -0.356346990741
 N2 0.685914 0.069093 0.  -0.0848669907407
 N2 0.703253 0.017931 0.94052  -0.0848669907407
 N1 0.526436 0.698075 0.86181  -0.356346990741
 N1 0.460059 0.611267 0.43020  -0.356346990741
 N2 0.616683 0.93066 0.49965  -0.0848669907407
 N2 0.68516 0.982027 0.55951  -0.0848669907407
 N1 0.828033 0.301821 0.63831  -0.356346990741
 O1 0.536882 0.607687 0.63126  -0.594329847884
 O1 0.478275 0.528671 0.70826  -0.594329847884
 O1 0.297191 0.519236 0.82041  -0.594329847884
 O1 0.123534 0.403023 0.79440  -0.594329847884
 O1 0.042631 0.581724 0.69618  -0.594329847884
 O2 0.056478 0.439536 0.64405  -0.594696990741
 O2 0.281223 0.521754 0.52984  -0.594696990741
 O1 0.306713 0.389052 0.46130  -0.594329847884
 O1 0.928352 0.392797 0.86896  -0.594329847884
 O1 0.949638 0.471187 0.7915  -0.594329847884
 O1 0.77832 0.480858 0.67963  -0.594329847884
 O1 0.720917 0.596742 0.70596  -0.594329847884
 O1 0.460858 0.418932 0.80402  -0.594329847884
 O2 0.617434 0.56113 0.85622  -0.594696990741
 O2 0.759477 0.479338 0.97078  -0.594696990741
 O1 0.919831 0.610422 0.03766  -0.594329847884
 O1 0.463108 0.392278 0.36853  -0.594329847884
 O1 0.521789 0.471381 0.29159  -0.594329847884
 O1 0.702838 0.480785 0.17941  -0.594329847884
 O1 0.87651 0.596977 0.20546  -0.594329847884
 O1 0.957392 0.418269 0.3036  -0.594329847884
 O2 0.943542 0.560454 0.35576  -0.594696990741
 O2 0.71889 0.478253 0.4699  -0.594696990741
 O1 0.693292 0.610897 0.53850  -0.594329847884
 O1 0.071658 0.607189 0.13085  -0.594329847884
 O1 0.050396 0.528852 0.20827  -0.594329847884
 O1 0.221715 0.519181 0.32019  -0.594329847884
 O1 0.27906 0.403256 0.29387  -0.594329847884
 O1 0.539164 0.581068 0.1957  -0.594329847884
 O2 0.382568 0.438877 0.14362  -0.594696990741
 O2 0.240552 0.520646 0.02902  -0.594696990741
 O1 0.080143 0.389613 0.96219  -0.594329847884
