#======================================================================

# CRYSTAL DATA

#----------------------------------------------------------------------

data_VESTA_phase_1


_pd_phase_name                         MOF
_cell_length_a                         17.22400
_cell_length_b                         17.23400
_cell_length_c                         17.29200
_cell_angle_alpha                      90.54800
_cell_angle_beta                       90.00000
_cell_angle_gamma                      90.00000
_symmetry_space_group_name_H-M         "P 1"
_symmetry_Int_Tables_number            1

loop_
_symmetry_equiv_pos_as_xyz
   "x, y, z"

loop_
   _atom_site_label
   _atom_site_fract_x
   _atom_site_fract_y
   _atom_site_fract_z
 _atom_site_charge
 Zn1 0.433356 0.107318 0.08427  1.08541174296
 Zn1 0.585694 0.172401 0.  1.08541174296
 Zn1 0.4261 0.264812 0.  1.08541174296
 Zn1 0.519009 0.258595 0.14906  1.08541174296
 Zn1 0.437806 0.616973 0.42620  1.08541174296
 Zn1 0.356749 0.769148 0.35553  1.08541174296
 Zn1 0.793403 0.329249 0.50745  1.08541174296
 Zn1 0.447501 0.777328 0.51722  1.08541174296
 Zn1 0.942182 0.909551 0.93097  1.08541174296
 Zn1 0.078663 0.845033 0.0034  1.08541174296
 Zn1 0.93597 0.752661 0.01025  1.08541174296
 Zn1 0.01339 0.756979 0.86633  1.08541174296
 Zn1 0.945907 0.400323 0.58949  1.08541174296
 Zn1 0.864264 0.248159 0.65988  1.08541174296
 Zn1 0.285419 0.688288 0.5081  1.08541174296
 Zn1 0.955456 0.240109 0.49839  1.08541174296
 H1 0.709158 0.994403 0.98121  0.104160909624
 H1 0.751204 0.754546 0.11066  0.104160909624
 H1 0.678828 0.687684 0.20395  0.104160909624
 H1 0.55904 0.720573 0.25886  0.104160909624
 H1 0.48043 0.828475 0.23398  0.104160909624
 H1 0.500245 0.928915 0.1456  0.104160909624
 H1 0.671869 0.22722 0.78715  0.104160909624
 H1 0.574278 0.337461 0.54578  0.104160909624
 H1 0.453227 0.387062 0.5063  0.104160909624
 H1 0.33741 0.394878 0.57616  0.104160909624
 H1 0.312827 0.359343 0.70398  0.104160909624
 H1 0.398803 0.307471 0.79568  0.104160909624
 H1 0.714236 0.279989 0.2755  0.104160909624
 H1 0.949359 0.125087 0.31716  0.104160909624
 H1 0.0 0.032225 0.2425  0.104160909624
 H1 0.987711 0.0 0.11918  0.104160909624
 H1 0.880535 0.013325 0.04019  0.104160909624
 H1 0.780242 0.102747 0.06213  0.104160909624
 H1 0.405841 0.0 0.27658  0.104160909624
 H1 0.564015 0.955052 0.50746  0.104160909624
 H1 0.65915 0.009335 0.57303  0.104160909624
 H1 0.70848 0.132149 0.54439  0.104160909624
 H1 0.67561 0.21403 0.44224  0.104160909624
 H1 0.583252 0.195258 0.34430  0.104160909624
 H1 0.461391 0.486216 0.23619  0.104160909624
 H1 0.377229 0.471536 0.98057  0.104160909624
 H1 0.324354 0.561878 0.89431  0.104160909624
 H1 0.288574 0.690669 0.9173  0.104160909624
 H1 0.295969 0.763068 0.  0.104160909624
 H1 0.346328 0.725654 0.13759  0.104160909624
 H1 0.664761 0.527485 0.48223  0.104160909624
 H1 0.88061 0.59608 0.65452  0.104160909624
 H1 0.904591 0.69927 0.74080  0.104160909624
 H1 0.828029 0.808757 0.76678  0.104160909624
 H1 0.706342 0.840724 0.71612  0.104160909624
 H1 0.630507 0.772207 0.62549  0.104160909624
 H1 0.200273 0.022932 0.03417  0.104160909624
 H1 0.241538 0.262517 0.90438  0.104160909624
 H1 0.169319 0.329234 0.81085  0.104160909624
 H1 0.04967 0.296226 0.75573  0.104160909624
 H1 0.987748 0.188291 0.78062  0.104160909624
 H1 0.0 0.088138 0.8692  0.104160909624
 H1 0.164338 0.790385 0.2282  0.104160909624
 H1 0.066503 0.680349 0.46962  0.104160909624
 H1 0.962122 0.630791 0.50891  0.104160909624
 H1 0.846381 0.622893 0.43902  0.104160909624
 H1 0.821928 0.658364 0.31114  0.104160909624
 H1 0.908009 0.710217 0.21952  0.104160909624
 H1 0.206924 0.736882 0.74097  0.104160909624
 H1 0.440668 0.893284 0.69748  0.104160909624
 H1 0.507827 0.986557 0.77145  0.104160909624
 H1 0.478294 0.017008 0.89528  0.104160909624
 H1 0.373738 0.0 0.97514  0.104160909624
 H1 0.27357 0.914683 0.95388  0.104160909624
 H1 0.913446 0.015898 0.73914  0.104160909624
 H1 0.054801 0.062211 0.508  0.104160909624
 H1 0.151595 0.0 0.44251  0.104160909624
 H1 0.20109 0.88518 0.47122  0.104160909624
 H1 0.16839 0.803343 0.57346  0.104160909624
 H1 0.076023 0.822045 0.67140  0.104160909624
 H1 0.971359 0.52955 0.77951  0.104160909624
 H1 0.887518 0.546236 0.03470  0.104160909624
 H1 0.832415 0.457139 0.12091  0.104160909624
 H1 0.794815 0.328763 0.09805  0.104160909624
 H1 0.802015 0.255817 0.98375  0.104160909624
 H1 0.852069 0.292187 0.87822  0.104160909624
 H1 0.156128 0.490175 0.53331  0.104160909624
 H1 0.371943 0.421143 0.36109  0.104160909624
 H1 0.395732 0.317811 0.27493  0.104160909624
 H1 0.319 0.20845 0.24901  0.104160909624
 H1 0.197246 0.176702 0.29968  0.104160909624
 H1 0.121575 0.245414 0.39030  0.104160909624
 C1 0.561407 0.008668 0.03273  0.715349659624
 C2 0.615332 0.961123 0.04562  -0.0982286737089
 C3 0.687489 0.953937 0.00809  -0.0394089514867
 C2 0.726606 0.887054 0.03301  -0.0982286737089
 C2 0.67831 0.849263 0.08870  -0.0982286737089
 C2 0.607598 0.897273 0.09759  -0.0982286737089
 C3 0.695887 0.780589 0.12725  -0.0394089514867
 C3 0.652708 0.741236 0.1828  -0.0394089514867
 C3 0.58104 0.760744 0.21555  -0.0394089514867
 C3 0.533841 0.824689 0.20028  -0.0394089514867
 C3 0.545493 0.884735 0.14786  -0.0394089514867
 C1 0.804324 0.864831 0.00585  0.715349659624
 C1 0.532011 0.250662 0.87054  0.715349659624
 C2 0.549605 0.266313 0.78916  -0.0982286737089
 C3 0.622933 0.251946 0.75650  -0.0394089514867
 C2 0.624672 0.275827 0.67906  -0.0982286737089
 C2 0.549728 0.306118 0.6601  -0.0982286737089
 C2 0.501219 0.299074 0.73051  -0.0982286737089
 C3 0.527917 0.336455 0.58875  -0.0394089514867
 C3 0.455995 0.365644 0.56555  -0.0394089514867
 C3 0.386847 0.370937 0.60750  -0.0394089514867
 C3 0.372269 0.349833 0.68395  -0.0394089514867
 C3 0.422947 0.318692 0.73855  -0.0394089514867
 C1 0.695407 0.270906 0.63220  0.715349659624
 C1 0.683074 0.21704 0.12701  0.715349659624
 C2 0.74753 0.200872 0.17980  -0.0982286737089
 C3 0.754237 0.236797 0.25283  -0.0394089514867
 C2 0.819845 0.208967 0.29206  -0.0982286737089
 C2 0.857385 0.152939 0.24293  -0.0982286737089
 C2 0.810711 0.147309 0.17127  -0.0982286737089
 C3 0.924745 0.111515 0.26053  -0.0394089514867
 C3 0.964273 0.056217 0.21600  -0.0394089514867
 C3 0.946363 0.026833 0.14253  -0.0394089514867
 C3 0.8836 0.045174 0.0949  -0.0394089514867
 C3 0.823701 0.09837 0.10775  -0.0394089514867
 C1 0.841159 0.235234 0.37014  0.715349659624
 C1 0.469197 0.13196 0.24719  0.715349659624
 C2 0.484784 0.078508 0.3105  -0.0982286737089
 C3 0.448668 0.005637 0.31632  -0.0394089514867
 C2 0.4781 0.982992 0.38064  -0.0982286737089
 C2 0.53411 0.013483 0.41800  -0.0982286737089
 C2 0.539351 0.085679 0.37274  -0.0982286737089
 C3 0.577744 0.0 0.48374  -0.0394089514867
 C3 0.63389 0.037162 0.5224  -0.0394089514867
 C3 0.663546 0.110448 0.50518  -0.0394089514867
 C3 0.643587 0.159584 0.44461  -0.0394089514867
 C3 0.588669 0.148632 0.3861  -0.0394089514867
 C1 0.451975 0.904852 0.40104  0.715349659624
 C1 0.437368 0.399431 0.09748  0.715349659624
 C2 0.420321 0.48111 0.1149  -0.0982286737089
 C3 0.435042 0.515531 0.18753  -0.0394089514867
 C2 0.409732 0.593056 0.18876  -0.0982286737089
 C1 0.414644 0.641999 0.25837  0.715349659624
 C2 0.386266 0.538941 0.06649  -0.0982286737089
 C3 0.365674 0.529288 0.  -0.0394089514867
 C3 0.333984 0.583145 0.95325  -0.0394089514867
 C3 0.312611 0.660219 0.96701  -0.0394089514867
 C3 0.317734 0.703686 0.  -0.0394089514867
 C3 0.347587 0.681662 0.09182  -0.0394089514867
 C2 0.378556 0.610377 0.11413  -0.0982286737089
 C1 0.574095 0.65995 0.52088  0.715349659624
 C2 0.651828 0.637676 0.54757  -0.0982286737089
 C3 0.689056 0.569303 0.52284  -0.0394089514867
 C2 0.762049 0.562251 0.55853  -0.0982286737089
 C2 0.772416 0.627833 0.60908  -0.0982286737089
 C2 0.702037 0.676491 0.60158  -0.0982286737089
 C3 0.836151 0.641088 0.65739  -0.0394089514867
 C3 0.850231 0.702635 0.70862  -0.0394089514867
 C3 0.804161 0.767539 0.72466  -0.0394089514867
 C3 0.731591 0.786699 0.69414  -0.0394089514867
 C3 0.68632 0.746335 0.64015  -0.0394089514867
 C1 0.812948 0.495196 0.545  0.715349659624
 C1 0.053209 0.0 0.98254  0.715349659624
 C2 0.105459 0.056131 0.969  -0.0982286737089
 C3 0.177587 0.06333 0.  -0.0394089514867
 C2 0.216792 0.130125 0.98218  -0.0982286737089
 C2 0.168597 0.167841 0.92636  -0.0982286737089
 C2 0.09786 0.119869 0.91748  -0.0982286737089
 C3 0.186249 0.236451 0.88773  -0.0394089514867
 C3 0.14317 0.275708 0.83199  -0.0394089514867
 C3 0.07158 0.256129 0.79916  -0.0394089514867
 C3 0.024351 0.192214 0.81446  -0.0394089514867
 C3 0.035861 0.132298 0.86705  -0.0394089514867
 C1 0.294502 0.152365 0.  0.715349659624
 C1 0.0 0.766928 0.14478  0.715349659624
 C2 0.042065 0.751338 0.22618  -0.0982286737089
 C3 0.115379 0.765702 0.25886  -0.0394089514867
 C2 0.117061 0.741872 0.33632  -0.0982286737089
 C2 0.042084 0.711627 0.35523  -0.0982286737089
 C2 0.0 0.718636 0.28481  -0.0982286737089
 C3 0.020191 0.681332 0.42660  -0.0394089514867
 C3 0.964951 0.65216 0.44973  -0.0394089514867
 C3 0.895845 0.64683 0.40772  -0.0394089514867
 C3 0.881345 0.667892 0.33124  -0.0394089514867
 C3 0.93208 0.699013 0.27669  -0.0394089514867
 C1 0.18777 0.746715 0.38320  0.715349659624
 C1 0.176469 0.799817 0.88979  0.715349659624
 C2 0.240355 0.816365 0.83643  -0.0982286737089
 C3 0.246805 0.780363 0.76338  -0.0394089514867
 C2 0.311984 0.808515 0.72367  -0.0982286737089
 C2 0.349515 0.864839 0.77249  -0.0982286737089
 C2 0.303303 0.870314 0.84444  -0.0982286737089
 C3 0.416458 0.9067 0.7543  -0.0394089514867
 C3 0.456053 0.962222 0.79851  -0.0394089514867
 C3 0.43869 0.991377 0.87220  -0.0394089514867
 C3 0.37645 0.972638 0.92032  -0.0394089514867
 C3 0.316631 0.919243 0.90790  -0.0394089514867
 C1 0.333115 0.782244 0.64551  0.715349659624
 C1 0.978522 0.885033 0.76846  0.715349659624
 C2 0.994234 0.938633 0.7051  -0.0982286737089
 C3 0.958068 0.0 0.69940  -0.0394089514867
 C2 0.985752 0.034287 0.63514  -0.0982286737089
 C2 0.026802 0.0 0.59773  -0.0982286737089
 C2 0.032081 0.931591 0.6429  -0.0982286737089
 C3 0.068592 0.005464 0.53194  -0.0394089514867
 C3 0.126443 0.980113 0.49320  -0.0394089514867
 C3 0.156176 0.906869 0.51045  -0.0394089514867
 C3 0.136319 0.857752 0.57108  -0.0394089514867
 C3 0.08142 0.868667 0.62955  -0.0394089514867
 C1 0.959647 0.112475 0.61471  0.715349659624
 C1 0.948224 0.616949 0.91788  0.715349659624
 C2 0.930002 0.535489 0.90058  -0.0982286737089
 C3 0.944311 0.50073 0.82809  -0.0394089514867
 C2 0.917538 0.423706 0.82685  -0.0982286737089
 C1 0.92158 0.374502 0.75735  0.715349659624
 C2 0.894717 0.478396 0.94902  -0.0982286737089
 C3 0.875031 0.488623 0.01123  -0.0394089514867
 C3 0.84209 0.435496 0.06211  -0.0394089514867
 C3 0.819618 0.358701 0.04848  -0.0394089514867
 C3 0.824529 0.314909 0.98025  -0.0394089514867
 C3 0.85384 0.336285 0.92387  -0.0394089514867
 C2 0.885881 0.407048 0.90145  -0.0982286737089
 C1 0.065379 0.357626 0.49475  0.715349659624
 C2 0.143112 0.379913 0.4680  -0.0982286737089
 C3 0.180386 0.448306 0.49273  -0.0394089514867
 C2 0.253396 0.455278 0.45703  -0.0982286737089
 C2 0.263696 0.389617 0.4065  -0.0982286737089
 C2 0.193281 0.341022 0.41410  -0.0982286737089
 C3 0.327415 0.376196 0.35828  -0.0394089514867
 C3 0.341388 0.314552 0.30714  -0.0394089514867
 C3 0.295212 0.249716 0.29112  -0.0394089514867
 C3 0.222605 0.230687 0.32163  -0.0394089514867
 C3 0.177429 0.271168 0.37559  -0.0394089514867
 C1 0.304418 0.522292 0.47004  0.715349659624
 O1 0.491916 0.200169 0.05491  -1.21790700704
 O2 0.499082 0.013624 0.07388  -0.616885757042
 O2 0.579365 0.057619 0.99567  -0.616885757042
 O2 0.840502 0.915883 0.98148  -0.616885757042
 O2 0.830746 0.797475 0.02295  -0.616885757042
 O2 0.587315 0.220511 0.91024  -0.616885757042
 O2 0.464451 0.26806 0.89696  -0.616885757042
 O2 0.751113 0.230398 0.66004  -0.616885757042
 O2 0.698068 0.306231 0.5669  -0.616885757042
 O2 0.679684 0.179884 0.06192  -0.616885757042
 O2 0.633795 0.2685 0.14879  -0.616885757042
 O2 0.904884 0.210756 0.39980  -0.616885757042
 O2 0.793054 0.281712 0.40372  -0.616885757042
 O2 0.50772 0.19594 0.24365  -0.616885757042
 O2 0.416922 0.111911 0.19771  -0.616885757042
 O2 0.474954 0.875377 0.46496  -0.616885757042
 O2 0.406945 0.87105 0.35179  -0.616885757042
 O2 0.467998 0.359937 0.15255  -0.616885757042
 O2 0.420612 0.372289 0.03006  -0.616885757042
 O2 0.45805 0.617336 0.31321  -0.616885757042
 O2 0.376248 0.706189 0.26100  -0.616885757042
 O1 0.380793 0.712858 0.45110  -1.21790700704
 O2 0.546551 0.726063 0.54216  -0.616885757042
 O2 0.538887 0.61044 0.47731  -0.616885757042
 O2 0.8781 0.492149 0.58205  -0.616885757042
 O2 0.789179 0.443395 0.49737  -0.616885757042
 O1 0.0 0.816679 0.95953  -1.21790700704
 O2 0.0 0.0 0.9414  -0.616885757042
 O2 0.072261 0.95975 0.01966  -0.616885757042
 O2 0.331648 0.101374 0.03394  -0.616885757042
 O2 0.321015 0.219617 0.99212  -0.616885757042
 O2 0.079881 0.79703 0.10512  -0.616885757042
 O2 0.973703 0.749542 0.11832  -0.616885757042
 O2 0.243692 0.786873 0.35522  -0.616885757042
 O2 0.190205 0.711721 0.44866  -0.616885757042
 O2 0.172615 0.837842 0.95432  -0.616885757042
 O2 0.127976 0.747029 0.86918  -0.616885757042
 O2 0.396771 0.806753 0.61572  -0.616885757042
 O2 0.284992 0.73574 0.61199  -0.616885757042
 O2 0.0 0.821051 0.77221  -0.616885757042
 O2 0.925923 0.90521 0.81756  -0.616885757042
 O2 0.982775 0.142067 0.55090  -0.616885757042
 O2 0.914447 0.146261 0.66382  -0.616885757042
 O2 0.97972 0.655466 0.86259  -0.616885757042
 O2 0.931652 0.64483 0.98504  -0.616885757042
 O2 0.9661 0.397619 0.70270  -0.616885757042
 O2 0.88125 0.311523 0.75457  -0.616885757042
 O1 0.88871 0.304528 0.56448  -1.21790700704
 O2 0.037781 0.291534 0.4734  -0.616885757042
 O2 0.030191 0.407152 0.53832  -0.616885757042
 O2 0.369627 0.525248 0.43360  -0.616885757042
 O2 0.280627 0.574183 0.51808  -0.616885757042
