#======================================================================

# CRYSTAL DATA

#----------------------------------------------------------------------

data_VESTA_phase_1


_pd_phase_name                         MOF
_cell_length_a                         14.78800
_cell_length_b                         18.11500
_cell_length_c                         19.48600
_cell_angle_alpha                      90.00500
_cell_angle_beta                       89.99000
_cell_angle_gamma                      90.07000
_symmetry_space_group_name_H-M         "P 1"
_symmetry_Int_Tables_number            1

loop_
_symmetry_equiv_pos_as_xyz
   "x, y, z"

loop_
   _atom_site_label
   _atom_site_fract_x
   _atom_site_fract_y
   _atom_site_fract_z
 _atom_site_charge
 Sc1 0.324418 0.250086 0.49972  2.06454947368
 Sc1 0.324482 0.750135 0.49979  2.06454947368
 Sc1 0.824453 0.250115 0.49978  2.06454947368
 Sc1 0.824465 0.750108 0.49975  2.06454947368
 Sc1 0.074437 0.249911 0.50017  2.06454947368
 Sc1 0.074457 0.749927 0.50020  2.06454947368
 Sc1 0.574424 0.249934 0.50021  2.06454947368
 Sc1 0.574482 0.749909 0.50017  2.06454947368
 Sc1 0.324271 0.499966 0.99970  2.06454947368
 Sc1 0.324283 0.99997 0.99968  2.06454947368
 Sc1 0.824281 0.499962 0.99969  2.06454947368
 Sc1 0.824295 0.999966 0.99971  2.06454947368
 Sc1 0.074292 6.1e-05 0.00024  2.06454947368
 Sc1 0.074272 0.500055 0.00029  2.06454947368
 Sc1 0.574295 5.3e-05 0.00028  2.06454947368
 Sc1 0.574285 0.500063 0.00025  2.06454947368
 H1 0.054607 0.144646 0.68989  0.111501973684
 H1 0.05459 0.64467 0.68991  0.111501973684
 H1 0.554599 0.144664 0.68994  0.111501973684
 H1 0.554622 0.644664 0.68990  0.111501973684
 H1 0.053976 0.107324 0.81426  0.111501973684
 H1 0.053931 0.607339 0.81428  0.111501973684
 H1 0.553976 0.107326 0.81430  0.111501973684
 H1 0.553982 0.607353 0.81427  0.111501973684
 H1 0.34416 0.115305 0.81710  0.111501973684
 H1 0.344114 0.615305 0.81716  0.111501973684
 H1 0.84416 0.115297 0.81714  0.111501973684
 H1 0.844166 0.615308 0.81712  0.111501973684
 H1 0.3448 0.15267 0.69276  0.111501973684
 H1 0.344784 0.652679 0.69281  0.111501973684
 H1 0.844794 0.152677 0.69279  0.111501973684
 H1 0.844817 0.652664 0.69277  0.111501973684
 H2 0.199443 0.357423 0.49341  0.405769473684
 H2 0.199455 0.857408 0.49292  0.405769473684
 H2 0.699451 0.357409 0.49301  0.405769473684
 H2 0.699463 0.857413 0.49318  0.405769473684
 H1 0.304719 0.35529 0.31025  0.111501973684
 H1 0.304675 0.855289 0.31026  0.111501973684
 H1 0.804659 0.355271 0.31025  0.111501973684
 H1 0.804739 0.855307 0.31024  0.111501973684
 H1 0.303897 0.392618 0.18588  0.111501973684
 H1 0.303857 0.892612 0.1858  0.111501973684
 H1 0.803844 0.392596 0.18588  0.111501973684
 H1 0.803942 0.892631 0.18587  0.111501973684
 H1 0.09399 0.384797 0.18262  0.111501973684
 H1 0.094086 0.884789 0.18262  0.111501973684
 H1 0.594057 0.384788 0.18260  0.111501973684
 H1 0.594018 0.884804 0.18262  0.111501973684
 H1 0.094812 0.347426 0.30697  0.111501973684
 H1 0.094891 0.847411 0.30696  0.111501973684
 H1 0.594886 0.347404 0.30694  0.111501973684
 H1 0.594844 0.847433 0.30696  0.111501973684
 H2 0.449069 0.142628 0.50698  0.405769473684
 H2 0.449084 0.642631 0.50686  0.405769473684
 H2 0.949082 0.142627 0.5069  0.405769473684
 H2 0.949089 0.642632 0.50694  0.405769473684
 H1 0.054711 0.10539 0.18985  0.111501973684
 H1 0.054736 0.605399 0.18994  0.111501973684
 H1 0.554725 0.105362 0.18992  0.111501973684
 H1 0.554719 0.605388 0.18990  0.111501973684
 H1 0.054135 0.142717 0.3142  0.111501973684
 H1 0.054235 0.64274 0.31431  0.111501973684
 H1 0.554176 0.142697 0.314  0.111501973684
 H1 0.554199 0.642714 0.3142  0.111501973684
 H1 0.344292 0.134694 0.31715  0.111501973684
 H1 0.344392 0.634698 0.31715  0.111501973684
 H1 0.844335 0.134699 0.31718  0.111501973684
 H1 0.844357 0.634694 0.31713  0.111501973684
 H1 0.344877 0.097325 0.19280  0.111501973684
 H1 0.344902 0.597313 0.19279  0.111501973684
 H1 0.844891 0.097321 0.1928  0.111501973684
 H1 0.844887 0.597326 0.19277  0.111501973684
 H2 0.199005 0.392623 0.99303  0.405769473684
 H2 0.19901 0.89262 0.99320  0.405769473684
 H2 0.699013 0.392614 0.99314  0.405769473684
 H2 0.699019 0.892627 0.99308  0.405769473684
 H1 0.304597 0.394634 0.8100  0.111501973684
 H1 0.304693 0.894593 0.80995  0.111501973684
 H1 0.804682 0.394607 0.80996  0.111501973684
 H1 0.804629 0.894612 0.8  0.111501973684
 H1 0.304055 0.357295 0.68564  0.111501973684
 H1 0.304285 0.857264 0.68558  0.111501973684
 H1 0.804252 0.357275 0.68559  0.111501973684
 H1 0.80414 0.857283 0.68562  0.111501973684
 H1 0.094419 0.365367 0.6829  0.111501973684
 H1 0.094306 0.86537 0.68286  0.111501973684
 H1 0.594238 0.36535 0.68282  0.111501973684
 H1 0.594468 0.865379 0.68292  0.111501973684
 H1 0.094857 0.402747 0.80726  0.111501973684
 H1 0.094804 0.902741 0.80722  0.111501973684
 H1 0.594788 0.40273 0.80717  0.111501973684
 H1 0.594885 0.902756 0.80728  0.111501973684
 H2 0.44936 0.107394 0.  0.405769473684
 H2 0.44936 0.607401 0.  0.405769473684
 H2 0.949374 0.1074 0.  0.405769473684
 H2 0.949363 0.607403 0.  0.405769473684
 C1 0.200227 0.17397 0.61076  0.788299473684
 C1 0.200226 0.674024 0.6108  0.788299473684
 C1 0.700219 0.174023 0.61082  0.788299473684
 C1 0.700246 0.673985 0.61077  0.788299473684
 C2 0.199766 0.150361 0.68424  -0.132135526316
 C2 0.19975 0.650375 0.68428  -0.132135526316
 C2 0.699758 0.150377 0.6842  -0.132135526316
 C2 0.699782 0.650357 0.68425  -0.132135526316
 C3 0.117478 0.13797 0.718  -0.0583030263158
 C3 0.117453 0.637988 0.71833  -0.0583030263158
 C3 0.617471 0.137982 0.71834  -0.0583030263158
 C3 0.617491 0.637987 0.7183  -0.0583030263158
 C3 0.117099 0.117655 0.78710  -0.0583030263158
 C3 0.117059 0.617667 0.78713  -0.0583030263158
 C3 0.617097 0.117657 0.78714  -0.0583030263158
 C3 0.617107 0.617674 0.78711  -0.0583030263158
 C2 0.198989 0.109648 0.82275  -0.132135526316
 C2 0.198942 0.609661 0.82279  -0.132135526316
 C2 0.69899 0.109649 0.82279  -0.132135526316
 C2 0.698995 0.60967 0.8227  -0.132135526316
 C3 0.281287 0.122093 0.78872  -0.0583030263158
 C3 0.281249 0.622097 0.78877  -0.0583030263158
 C3 0.781287 0.12209 0.78875  -0.0583030263158
 C3 0.781296 0.622098 0.78873  -0.0583030263158
 C3 0.281655 0.142428 0.71992  -0.0583030263158
 C3 0.281633 0.642439 0.7199  -0.0583030263158
 C3 0.781651 0.142434 0.71995  -0.0583030263158
 C3 0.781669 0.642431 0.71993  -0.0583030263158
 C1 0.198523 0.085172 0.89597  0.788299473684
 C1 0.198461 0.58518 0.89601  0.788299473684
 C1 0.698526 0.085172 0.89601  0.788299473684
 C1 0.698526 0.58518 0.89598  0.788299473684
 C1 0.45045 0.326 0.3891  0.788299473684
 C1 0.450391 0.826031 0.38916  0.788299473684
 C1 0.950376 0.326014 0.3891  0.788299473684
 C1 0.950454 0.826021 0.38915  0.788299473684
 C2 0.44988 0.349639 0.31567  -0.132135526316
 C2 0.449836 0.849659 0.31569  -0.132135526316
 C2 0.949821 0.349643 0.3156  -0.132135526316
 C2 0.9499 0.849659 0.31568  -0.132135526316
 C3 0.367541 0.361999 0.28175  -0.0583030263158
 C3 0.367499 0.862004 0.28176  -0.0583030263158
 C3 0.867484 0.361988 0.28176  -0.0583030263158
 C3 0.867568 0.862013 0.28175  -0.0583030263158
 C3 0.367051 0.382318 0.21294  -0.0583030263158
 C3 0.367011 0.882318 0.21295  -0.0583030263158
 C3 0.866998 0.382304 0.21295  -0.0583030263158
 C3 0.867091 0.882329 0.21295  -0.0583030263158
 C2 0.448878 0.390365 0.17717  -0.132135526316
 C2 0.448839 0.890371 0.17718  -0.132135526316
 C2 0.948827 0.390359 0.17718  -0.132135526316
 C2 0.948924 0.890371 0.17718  -0.132135526316
 C3 0.031161 0.377967 0.211  -0.0583030263158
 C3 0.031252 0.877968 0.21109  -0.0583030263158
 C3 0.53123 0.377963 0.2110  -0.0583030263158
 C3 0.531189 0.877976 0.21109  -0.0583030263158
 C3 0.031635 0.357629 0.279  -0.0583030263158
 C3 0.031718 0.857627 0.27989  -0.0583030263158
 C3 0.531709 0.35762 0.27987  -0.0583030263158
 C3 0.531666 0.857638 0.279  -0.0583030263158
 C1 0.448324 0.414835 0.10395  0.788299473684
 C1 0.448292 0.914845 0.10396  0.788299473684
 C1 0.948282 0.414831 0.10396  0.788299473684
 C1 0.948382 0.91485 0.10396  0.788299473684
 C1 0.200304 0.076042 0.11077  0.788299473684
 C1 0.200298 0.576027 0.11081  0.788299473684
 C1 0.700308 0.076015 0.11082  0.788299473684
 C1 0.700286 0.576039 0.11078  0.788299473684
 C2 0.199861 0.099654 0.18425  -0.132135526316
 C2 0.199882 0.599646 0.18429  -0.132135526316
 C2 0.699873 0.099637 0.184  -0.132135526316
 C2 0.699867 0.599655 0.18426  -0.132135526316
 C3 0.11759 0.112058 0.21827  -0.0583030263158
 C3 0.117633 0.612068 0.21834  -0.0583030263158
 C3 0.61761 0.112038 0.21833  -0.0583030263158
 C3 0.617612 0.612057 0.21831  -0.0583030263158
 C3 0.117236 0.132375 0.28708  -0.0583030263158
 C3 0.117322 0.632392 0.28715  -0.0583030263158
 C3 0.617273 0.13236 0.28714  -0.0583030263158
 C3 0.61729 0.632375 0.28712  -0.0583030263158
 C2 0.199134 0.140367 0.32275  -0.132135526316
 C2 0.199246 0.640387 0.32280  -0.132135526316
 C2 0.69918 0.140362 0.32280  -0.132135526316
 C2 0.699207 0.640365 0.32277  -0.132135526316
 C3 0.281414 0.127913 0.28875  -0.0583030263158
 C3 0.281499 0.627918 0.28876  -0.0583030263158
 C3 0.78145 0.127912 0.28878  -0.0583030263158
 C3 0.781468 0.627913 0.2887  -0.0583030263158
 C3 0.281756 0.107578 0.21994  -0.0583030263158
 C3 0.281798 0.607575 0.21996  -0.0583030263158
 C3 0.781776 0.107571 0.21998  -0.0583030263158
 C3 0.781778 0.607578 0.21993  -0.0583030263158
 C1 0.19873 0.16483 0.39598  0.788299473684
 C1 0.198924 0.664845 0.39603  0.788299473684
 C1 0.698803 0.164832 0.39603  0.788299473684
 C1 0.698857 0.664832 0.39599  0.788299473684
 C1 0.450188 0.424011 0.88915  0.788299473684
 C1 0.450213 0.923999 0.88917  0.788299473684
 C1 0.950213 0.423995 0.88917  0.788299473684
 C1 0.95019 0.924002 0.88916  0.788299473684
 C2 0.449752 0.400388 0.81567  -0.132135526316
 C2 0.449841 0.900376 0.81569  -0.132135526316
 C2 0.949831 0.40038 0.81569  -0.132135526316
 C2 0.949781 0.900376 0.8156  -0.132135526316
 C3 0.367487 0.38797 0.78161  -0.0583030263158
 C3 0.367614 0.887945 0.78158  -0.0583030263158
 C3 0.867598 0.387953 0.78159  -0.0583030263158
 C3 0.867531 0.887958 0.78161  -0.0583030263158
 C3 0.367158 0.367645 0.71281  -0.0583030263158
 C3 0.367363 0.867623 0.71277  -0.0583030263158
 C3 0.867334 0.36763 0.71278  -0.0583030263158
 C3 0.867233 0.867636 0.71280  -0.0583030263158
 C2 0.449076 0.359661 0.67716  -0.132135526316
 C2 0.44933 0.85966 0.67718  -0.132135526316
 C2 0.949291 0.359658 0.67718  -0.132135526316
 C2 0.949169 0.859665 0.67717  -0.132135526316
 C3 0.031509 0.372135 0.71126  -0.0583030263158
 C3 0.031407 0.872135 0.71123  -0.0583030263158
 C3 0.53135 0.372125 0.71120  -0.0583030263158
 C3 0.531555 0.872142 0.7112  -0.0583030263158
 C3 0.031761 0.392476 0.78006  -0.0583030263158
 C3 0.031694 0.892475 0.7800  -0.0583030263158
 C3 0.531667 0.392467 0.78000  -0.0583030263158
 C3 0.531795 0.892482 0.7800  -0.0583030263158
 C1 0.448662 0.335195 0.60394  0.788299473684
 C1 0.449079 0.835191 0.60396  0.788299473684
 C1 0.949004 0.33519 0.60395  0.788299473684
 C1 0.948809 0.835192 0.60395  0.788299473684
 O1 0.276678 0.183939 0.58194  -0.729635526316
 O1 0.276681 0.684027 0.58201  -0.729635526316
 O1 0.776672 0.184005 0.58201  -0.729635526316
 O1 0.776698 0.683975 0.58196  -0.729635526316
 O1 0.124143 0.183621 0.58128  -0.729635526316
 O1 0.124147 0.683687 0.5813  -0.729635526316
 O1 0.624137 0.183694 0.58134  -0.729635526316
 O1 0.624164 0.683638 0.58130  -0.729635526316
 O1 0.122111 0.074908 0.92480  -0.729635526316
 O1 0.122045 0.574919 0.9248  -0.729635526316
 O1 0.622115 0.074906 0.92483  -0.729635526316
 O1 0.622116 0.574916 0.92481  -0.729635526316
 O1 0.274606 0.074842 0.92527  -0.729635526316
 O1 0.274544 0.574853 0.92531  -0.729635526316
 O1 0.774614 0.074845 0.92530  -0.729635526316
 O1 0.774612 0.57485 0.92528  -0.729635526316
 O2 0.199411 0.303889 0.49706  -1.07690052632
 O2 0.199442 0.803919 0.49710  -1.07690052632
 O2 0.69942 0.303913 0.49712  -1.07690052632
 O2 0.699448 0.803898 0.49705  -1.07690052632
 O1 0.026822 0.315953 0.41785  -0.729635526316
 O1 0.026905 0.815943 0.41784  -0.729635526316
 O1 0.526924 0.315937 0.41782  -0.729635526316
 O1 0.526854 0.815954 0.41785  -0.729635526316
 O1 0.374394 0.316411 0.4187  -0.729635526316
 O1 0.374322 0.816465 0.41875  -0.729635526316
 O1 0.874308 0.316438 0.41874  -0.729635526316
 O1 0.874391 0.816442 0.41874  -0.729635526316
 O1 0.371914 0.42512 0.07520  -0.729635526316
 O1 0.371888 0.925125 0.07520  -0.729635526316
 O1 0.871878 0.425114 0.07520  -0.729635526316
 O1 0.871975 0.925132 0.07520  -0.729635526316
 O1 0.024357 0.42514 0.07461  -0.729635526316
 O1 0.024455 0.925154 0.07460  -0.729635526316
 O1 0.524412 0.425137 0.07458  -0.729635526316
 O1 0.524384 0.925152 0.07461  -0.729635526316
 O2 0.449299 0.196124 0.50288  -1.07690052632
 O2 0.449334 0.696138 0.50289  -1.07690052632
 O2 0.949313 0.19613 0.50289  -1.07690052632
 O2 0.949336 0.696131 0.5028  -1.07690052632
 O1 0.27673 0.066066 0.0819  -0.729635526316
 O1 0.276718 0.566055 0.08200  -0.729635526316
 O1 0.776734 0.066035 0.08202  -0.729635526316
 O1 0.776706 0.566069 0.08196  -0.729635526316
 O1 0.124199 0.066397 0.08127  -0.729635526316
 O1 0.124186 0.566372 0.08133  -0.729635526316
 O1 0.624202 0.066369 0.08132  -0.729635526316
 O1 0.624174 0.566387 0.081  -0.729635526316
 O1 0.122361 0.175112 0.42481  -0.729635526316
 O1 0.122582 0.675131 0.42490  -0.729635526316
 O1 0.622442 0.175118 0.4248  -0.729635526316
 O1 0.622506 0.675117 0.42485  -0.729635526316
 O1 0.274854 0.175139 0.42526  -0.729635526316
 O1 0.275084 0.675141 0.42527  -0.729635526316
 O1 0.774943 0.175139 0.42530  -0.729635526316
 O1 0.775002 0.675139 0.42525  -0.729635526316
 O2 0.199173 0.446125 0.99708  -1.07690052632
 O2 0.199183 0.946138 0.9970  -1.07690052632
 O2 0.699181 0.446128 0.99707  -1.07690052632
 O2 0.699192 0.946133 0.997  -1.07690052632
 O1 0.026619 0.433943 0.91801  -0.729635526316
 O1 0.026607 0.933965 0.91798  -0.729635526316
 O1 0.526631 0.43397 0.91795  -0.729635526316
 O1 0.526634 0.933956 0.91801  -0.729635526316
 O1 0.374096 0.433678 0.91863  -0.729635526316
 O1 0.374099 0.933671 0.91862  -0.729635526316
 O1 0.874102 0.433664 0.91862  -0.729635526316
 O1 0.874088 0.933671 0.91863  -0.729635526316
 O1 0.372256 0.324923 0.5751  -0.729635526316
 O1 0.372739 0.824904 0.57506  -0.729635526316
 O1 0.872651 0.3249 0.57508  -0.729635526316
 O1 0.872423 0.82492 0.57511  -0.729635526316
 O1 0.025136 0.324886 0.57472  -0.729635526316
 O1 0.024907 0.824876 0.57467  -0.729635526316
 O1 0.524757 0.324875 0.57464  -0.729635526316
 O1 0.525239 0.82489 0.57474  -0.729635526316
 O2 0.449312 0.053888 0.00289  -1.07690052632
 O2 0.449303 0.5539 0.00289  -1.07690052632
 O2 0.949321 0.053891 0.00289  -1.07690052632
 O2 0.94931 0.553894 0.00290  -1.07690052632
