#======================================================================

# CRYSTAL DATA

#----------------------------------------------------------------------

data_VESTA_phase_1


_pd_phase_name                         MOF
_cell_length_a                         15.74000
_cell_length_b                         23.16700
_cell_length_c                         13.53400
_cell_angle_alpha                      90.00100
_cell_angle_beta                       90.00000
_cell_angle_gamma                      109.79100
_symmetry_space_group_name_H-M         "P 1"
_symmetry_Int_Tables_number            1

loop_
_symmetry_equiv_pos_as_xyz
   "x, y, z"

loop_
   _atom_site_label
   _atom_site_fract_x
   _atom_site_fract_y
   _atom_site_fract_z
 _atom_site_charge
 Cd1 0.142603 0.15668 0.25000  0.589747702703
 Cd1 0.142602 0.656689 0.25000  0.589747702703
 Cd1 0.6426 0.156679 0.25000  0.589747702703
 Cd1 0.642601 0.656688 0.25000  0.589747702703
 Cd1 0.357423 0.343333 0.75000  0.589747702703
 Cd1 0.357423 0.843341 0.75000  0.589747702703
 Cd1 0.857419 0.343332 0.75000  0.589747702703
 Cd1 0.857421 0.843341 0.75000  0.589747702703
 Cd1 0.48594 0.344032 0.24999  0.589747702703
 Cd1 0.48594 0.844041 0.24999  0.589747702703
 Cd1 0.985938 0.344032 0.2  0.589747702703
 Cd1 0.985938 0.84404 0.24999  0.589747702703
 Cd1 0.014085 0.155981 0.7500  0.589747702703
 Cd1 0.014085 0.65599 0.7500  0.589747702703
 Cd1 0.514083 0.155981 0.7500  0.589747702703
 Cd1 0.514084 0.655989 0.7500  0.589747702703
 Cd2 0.25001 0.999999 0.99999  0.865192702703
 Cd2 0.25001 0.500008 0.99999  0.865192702703
 Cd2 0.750011 0.999999 0.  0.865192702703
 Cd2 0.750011 0.500008 0.  0.865192702703
 Cd2 0.250011 1e-06 0.50000  0.865192702703
 Cd2 0.250011 0.50001 0.50000  0.865192702703
 Cd2 0.750012 1e-06 0.50000  0.865192702703
 Cd2 0.750012 0.50001 0.50000  0.865192702703
 H1 0.095969 0.055319 0.90478  0.0833602027027
 H1 0.095968 0.555326 0.9047  0.0833602027027
 H1 0.595971 0.055318 0.9047  0.0833602027027
 H1 0.595972 0.555328 0.90478  0.0833602027027
 H1 0.19658 0.096375 0.83921  0.0833602027027
 H1 0.196582 0.596385 0.83921  0.0833602027027
 H1 0.696584 0.096376 0.83921  0.0833602027027
 H1 0.696582 0.596384 0.83921  0.0833602027027
 H1 0.040767 0.443832 0.59523  0.0833602027027
 H1 0.040767 0.94384 0.59523  0.0833602027027
 H1 0.540769 0.443831 0.59523  0.0833602027027
 H1 0.540769 0.94384 0.59523  0.0833602027027
 H1 0.100829 0.403053 0.66085  0.0833602027027
 H1 0.100828 0.903062 0.66085  0.0833602027027
 H1 0.60083 0.403053 0.66085  0.0833602027027
 H1 0.60083 0.903061 0.66085  0.0833602027027
 H1 0.095968 0.055318 0.59523  0.0833602027027
 H1 0.095967 0.555325 0.59523  0.0833602027027
 H1 0.59597 0.055317 0.59523  0.0833602027027
 H1 0.595971 0.555327 0.59523  0.0833602027027
 H1 0.196579 0.096375 0.66080  0.0833602027027
 H1 0.196581 0.596384 0.66080  0.0833602027027
 H1 0.696583 0.096375 0.66080  0.0833602027027
 H1 0.696582 0.596383 0.66080  0.0833602027027
 H1 0.040767 0.443834 0.90477  0.0833602027027
 H1 0.040768 0.943841 0.90477  0.0833602027027
 H1 0.54077 0.443832 0.90477  0.0833602027027
 H1 0.54077 0.943842 0.90477  0.0833602027027
 H1 0.10083 0.403053 0.83915  0.0833602027027
 H1 0.100828 0.903063 0.8391  0.0833602027027
 H1 0.60083 0.403054 0.8391  0.0833602027027
 H1 0.600831 0.903062 0.83915  0.0833602027027
 H1 0.460745 0.999428 0.81593  0.0833602027027
 H1 0.460744 0.499437 0.81593  0.0833602027027
 H1 0.960739 0.999428 0.81593  0.0833602027027
 H1 0.960741 0.499436 0.81593  0.0833602027027
 H1 0.460745 0.999427 0.68407  0.0833602027027
 H1 0.460744 0.499436 0.68408  0.0833602027027
 H1 0.960739 0.999427 0.68408  0.0833602027027
 H1 0.960741 0.499436 0.68407  0.0833602027027
 H1 0.23737 0.458955 0.75000  0.0833602027027
 H1 0.237372 0.958964 0.75000  0.0833602027027
 H1 0.737374 0.458955 0.75000  0.0833602027027
 H1 0.737373 0.958963 0.75000  0.0833602027027
 H1 0.277903 0.040854 0.75000  0.0833602027027
 H1 0.277903 0.540863 0.75000  0.0833602027027
 H1 0.777905 0.040853 0.75000  0.0833602027027
 H1 0.777906 0.540862 0.75000  0.0833602027027
 H1 0.404055 0.444696 0.40477  0.0833602027027
 H1 0.404054 0.944703 0.40477  0.0833602027027
 H1 0.904057 0.444694 0.40477  0.0833602027027
 H1 0.904058 0.944704 0.40477  0.0833602027027
 H1 0.303441 0.403636 0.33920  0.0833602027027
 H1 0.303443 0.903646 0.33920  0.0833602027027
 H1 0.803446 0.403637 0.33920  0.0833602027027
 H1 0.803445 0.903645 0.33920  0.0833602027027
 H1 0.459254 0.05618 0.09523  0.0833602027027
 H1 0.459254 0.556187 0.09523  0.0833602027027
 H1 0.959256 0.056179 0.09523  0.0833602027027
 H1 0.959257 0.556189 0.09523  0.0833602027027
 H1 0.399193 0.096958 0.1608  0.0833602027027
 H1 0.399191 0.596967 0.16085  0.0833602027027
 H1 0.899194 0.096958 0.16085  0.0833602027027
 H1 0.899195 0.596966 0.1608  0.0833602027027
 H1 0.404054 0.444694 0.0952  0.0833602027027
 H1 0.404053 0.944701 0.09522  0.0833602027027
 H1 0.904056 0.444693 0.09522  0.0833602027027
 H1 0.904057 0.944702 0.09522  0.0833602027027
 H1 0.30344 0.403636 0.16079  0.0833602027027
 H1 0.303443 0.903645 0.16079  0.0833602027027
 H1 0.803446 0.403637 0.16079  0.0833602027027
 H1 0.803445 0.903645 0.16079  0.0833602027027
 H1 0.459255 0.056181 0.40477  0.0833602027027
 H1 0.459255 0.556188 0.40477  0.0833602027027
 H1 0.959257 0.05618 0.40477  0.0833602027027
 H1 0.959257 0.55619 0.40477  0.0833602027027
 H1 0.399193 0.096958 0.33915  0.0833602027027
 H1 0.399192 0.596968 0.33915  0.0833602027027
 H1 0.899194 0.096958 0.33915  0.0833602027027
 H1 0.899196 0.596967 0.33915  0.0833602027027
 H1 0.039284 0.000577 0.3159  0.0833602027027
 H1 0.039285 0.500585 0.31592  0.0833602027027
 H1 0.53928 0.000576 0.31592  0.0833602027027
 H1 0.539279 0.500585 0.31593  0.0833602027027
 H1 0.039284 0.000576 0.18407  0.0833602027027
 H1 0.039285 0.500585 0.18407  0.0833602027027
 H1 0.539279 0.000576 0.18407  0.0833602027027
 H1 0.539279 0.500585 0.18407  0.0833602027027
 H1 0.26265 0.041056 0.25000  0.0833602027027
 H1 0.262652 0.541065 0.25000  0.0833602027027
 H1 0.762652 0.041056 0.25000  0.0833602027027
 H1 0.762652 0.541065 0.25000  0.0833602027027
 H1 0.222119 0.459157 0.25000  0.0833602027027
 H1 0.222119 0.959166 0.25000  0.0833602027027
 H1 0.722121 0.459157 0.25000  0.0833602027027
 H1 0.722121 0.959165 0.25000  0.0833602027027
 C1 0.175039 0.106005 0.12242  -0.061418963964
 C1 0.175039 0.606014 0.12242  -0.061418963964
 C1 0.675037 0.106004 0.12242  -0.061418963964
 C1 0.675038 0.606013 0.12242  -0.061418963964
 C1 0.324985 0.394006 0.62242  -0.061418963964
 C1 0.324985 0.894014 0.62242  -0.061418963964
 C1 0.824983 0.394005 0.62242  -0.061418963964
 C1 0.824983 0.894013 0.62242  -0.061418963964
 C1 0.069145 0.394506 0.37751  -0.061418963964
 C1 0.069145 0.894515 0.37751  -0.061418963964
 C1 0.569145 0.394507 0.37751  -0.061418963964
 C1 0.569145 0.894515 0.37751  -0.061418963964
 C1 0.430879 0.105507 0.87752  -0.061418963964
 C1 0.430879 0.605516 0.87752  -0.061418963964
 C1 0.930878 0.105508 0.87752  -0.061418963964
 C1 0.930879 0.605517 0.87752  -0.061418963964
 C1 0.324986 0.394008 0.87758  -0.061418963964
 C1 0.324986 0.894016 0.87758  -0.061418963964
 C1 0.824984 0.394007 0.87758  -0.061418963964
 C1 0.824984 0.894015 0.87758  -0.061418963964
 C1 0.17504 0.106007 0.37758  -0.061418963964
 C1 0.17504 0.606015 0.37758  -0.061418963964
 C1 0.675039 0.106006 0.37758  -0.061418963964
 C1 0.675039 0.606015 0.37758  -0.061418963964
 C1 0.430878 0.105506 0.62249  -0.061418963964
 C1 0.430878 0.605514 0.62249  -0.061418963964
 C1 0.930877 0.105506 0.6224  -0.061418963964
 C1 0.930878 0.605515 0.62249  -0.061418963964
 C1 0.069144 0.394504 0.12248  -0.061418963964
 C1 0.069145 0.894513 0.12248  -0.061418963964
 C1 0.569144 0.394505 0.12248  -0.061418963964
 C1 0.569144 0.894514 0.12248  -0.061418963964
 C1 0.062478 0.217417 0.25000  -0.061418963964
 C1 0.062477 0.717425 0.25000  -0.061418963964
 C1 0.562476 0.217417 0.25000  -0.061418963964
 C1 0.562476 0.717425 0.25000  -0.061418963964
 C1 0.437547 0.282596 0.75000  -0.061418963964
 C1 0.437548 0.782605 0.75000  -0.061418963964
 C1 0.937546 0.282596 0.75000  -0.061418963964
 C1 0.937546 0.782605 0.75000  -0.061418963964
 C1 0.345251 0.283323 0.25000  -0.061418963964
 C1 0.34525 0.783331 0.25000  -0.061418963964
 C1 0.845248 0.283322 0.25000  -0.061418963964
 C1 0.845249 0.783331 0.25000  -0.061418963964
 C1 0.154775 0.21669 0.75000  -0.061418963964
 C1 0.154775 0.716698 0.75000  -0.061418963964
 C1 0.654772 0.216689 0.75000  -0.061418963964
 C1 0.654773 0.716698 0.75000  -0.061418963964
 C2 0.135885 0.055171 0.83840  0.0650727027027
 C2 0.135887 0.555181 0.83840  0.0650727027027
 C2 0.635889 0.055172 0.83840  0.0650727027027
 C2 0.635888 0.55518 0.83840  0.0650727027027
 C2 0.080874 0.444124 0.66162  0.0650727027027
 C2 0.080874 0.944134 0.66162  0.0650727027027
 C2 0.580876 0.444125 0.66162  0.0650727027027
 C2 0.580876 0.944133 0.66162  0.0650727027027
 C2 0.135885 0.055171 0.66160  0.0650727027027
 C2 0.135886 0.555181 0.66160  0.0650727027027
 C2 0.635889 0.055171 0.66160  0.0650727027027
 C2 0.635888 0.555179 0.66160  0.0650727027027
 C2 0.080874 0.444125 0.83838  0.0650727027027
 C2 0.080874 0.944135 0.83838  0.0650727027027
 C2 0.580876 0.444126 0.83838  0.0650727027027
 C2 0.580876 0.944134 0.83838  0.0650727027027
 C2 0.501354 0.999489 0.75000  0.0650727027027
 C2 0.501356 0.499498 0.75000  0.0650727027027
 C2 0.0 0.999489 0.75000  0.0650727027027
 C2 0.0 0.499498 0.75000  0.0650727027027
 C2 0.21717 0.999826 0.75000  0.0650727027027
 C2 0.217171 0.499835 0.75000  0.0650727027027
 C2 0.717172 0.999826 0.75000  0.0650727027027
 C2 0.717172 0.499835 0.75000  0.0650727027027
 C2 0.364135 0.44484 0.33840  0.0650727027027
 C2 0.364137 0.94485 0.33840  0.0650727027027
 C2 0.86414 0.444842 0.33840  0.0650727027027
 C2 0.864139 0.944849 0.33840  0.0650727027027
 C2 0.419147 0.055886 0.16162  0.0650727027027
 C2 0.419147 0.555896 0.16162  0.0650727027027
 C2 0.919149 0.055886 0.16162  0.0650727027027
 C2 0.91915 0.555894 0.16162  0.0650727027027
 C2 0.364135 0.444839 0.16160  0.0650727027027
 C2 0.364137 0.944849 0.16160  0.0650727027027
 C2 0.86414 0.444841 0.16160  0.0650727027027
 C2 0.864139 0.944848 0.16160  0.0650727027027
 C2 0.419148 0.055887 0.33838  0.0650727027027
 C2 0.419148 0.555897 0.33838  0.0650727027027
 C2 0.91915 0.055887 0.33838  0.0650727027027
 C2 0.91915 0.555895 0.33838  0.0650727027027
 C2 0.998673 0.000515 0.25000  0.0650727027027
 C2 0.998671 0.500523 0.25000  0.0650727027027
 C2 0.498667 0.000514 0.25000  0.0650727027027
 C2 0.498671 0.500523 0.25000  0.0650727027027
 C2 0.282851 0.000177 0.25000  0.0650727027027
 C2 0.282851 0.500185 0.25000  0.0650727027027
 C2 0.782852 0.000176 0.25000  0.0650727027027
 C2 0.782853 0.500185 0.25000  0.0650727027027
 N1 0.197142 0.074237 0.0682  -0.326373963964
 N1 0.197143 0.574245 0.0682  -0.326373963964
 N1 0.697143 0.074236 0.06822  -0.326373963964
 N1 0.697143 0.574245 0.06822  -0.326373963964
 N1 0.302881 0.425773 0.56822  -0.326373963964
 N1 0.302881 0.925782 0.56822  -0.326373963964
 N1 0.802881 0.425773 0.56822  -0.326373963964
 N1 0.802881 0.925781 0.56822  -0.326373963964
 N1 0.123172 0.426178 0.43156  -0.326373963964
 N1 0.123172 0.926187 0.43156  -0.326373963964
 N1 0.623173 0.426179 0.43156  -0.326373963964
 N1 0.623173 0.926187 0.43156  -0.326373963964
 N1 0.376851 0.073835 0.93157  -0.326373963964
 N1 0.376851 0.573844 0.93157  -0.326373963964
 N1 0.876852 0.073835 0.93157  -0.326373963964
 N1 0.876852 0.573845 0.93157  -0.326373963964
 N1 0.302882 0.425775 0.9317  -0.326373963964
 N1 0.302882 0.925784 0.9317  -0.326373963964
 N1 0.802882 0.425775 0.93179  -0.326373963964
 N1 0.802882 0.925783 0.93179  -0.326373963964
 N1 0.197144 0.074239 0.43178  -0.326373963964
 N1 0.197144 0.574247 0.43178  -0.326373963964
 N1 0.697144 0.074238 0.43178  -0.326373963964
 N1 0.697144 0.574247 0.43178  -0.326373963964
 N1 0.37685 0.073833 0.56844  -0.326373963964
 N1 0.37685 0.573842 0.56844  -0.326373963964
 N1 0.87685 0.073834 0.56844  -0.326373963964
 N1 0.876851 0.573843 0.56844  -0.326373963964
 N1 0.123171 0.426177 0.06843  -0.326373963964
 N1 0.123171 0.926185 0.06843  -0.326373963964
 N1 0.623171 0.426177 0.06843  -0.326373963964
 N1 0.623172 0.926185 0.06843  -0.326373963964
 N1 0.034214 0.258054 0.2  -0.326373963964
 N1 0.034214 0.758063 0.2  -0.326373963964
 N1 0.534213 0.258055 0.2  -0.326373963964
 N1 0.534213 0.758063 0.2  -0.326373963964
 N1 0.46581 0.241958 0.75000  -0.326373963964
 N1 0.465811 0.741967 0.75000  -0.326373963964
 N1 0.965809 0.241959 0.75000  -0.326373963964
 N1 0.96581 0.741967 0.75000  -0.326373963964
 N1 0.276666 0.242522 0.25000  -0.326373963964
 N1 0.276665 0.742531 0.25000  -0.326373963964
 N1 0.776663 0.242521 0.25000  -0.326373963964
 N1 0.776664 0.74253 0.25000  -0.326373963964
 N1 0.223361 0.25749 0.75000  -0.326373963964
 N1 0.223361 0.757498 0.75000  -0.326373963964
 N1 0.723358 0.257489 0.75000  -0.326373963964
 N1 0.72336 0.757497 0.75000  -0.326373963964
 N2 0.164106 0.999741 0.84105  -0.274127297297
 N2 0.164105 0.49975 0.84105  -0.274127297297
 N2 0.664107 0.999741 0.84105  -0.274127297297
 N2 0.664108 0.49975 0.84105  -0.274127297297
 N2 0.164105 0.99974 0.65895  -0.274127297297
 N2 0.164104 0.499749 0.65895  -0.274127297297
 N2 0.664106 0.99974 0.65895  -0.274127297297
 N2 0.664108 0.499749 0.65895  -0.274127297297
 N2 0.08183 0.055643 0.75000  -0.274127297297
 N2 0.08183 0.555651 0.75000  -0.274127297297
 N2 0.581832 0.055642 0.75000  -0.274127297297
 N2 0.581832 0.555652 0.75000  -0.274127297297
 N2 0.026259 0.443506 0.75000  -0.274127297297
 N2 0.02626 0.943514 0.75000  -0.274127297297
 N2 0.526262 0.443506 0.75000  -0.274127297297
 N2 0.526262 0.943515 0.75000  -0.274127297297
 N2 0.335916 0.000263 0.34105  -0.274127297297
 N2 0.335918 0.500272 0.34105  -0.274127297297
 N2 0.835919 0.000262 0.3410  -0.274127297297
 N2 0.835918 0.500271 0.3410  -0.274127297297
 N2 0.335915 0.000262 0.15895  -0.274127297297
 N2 0.335917 0.500271 0.15895  -0.274127297297
 N2 0.835918 0.000262 0.15895  -0.274127297297
 N2 0.835918 0.500271 0.15895  -0.274127297297
 N2 0.418193 0.44437 0.25000  -0.274127297297
 N2 0.418192 0.944377 0.25000  -0.274127297297
 N2 0.918194 0.444369 0.25000  -0.274127297297
 N2 0.918195 0.944378 0.25000  -0.274127297297
 N2 0.473762 0.056507 0.25000  -0.274127297297
 N2 0.473762 0.556514 0.25000  -0.274127297297
 N2 0.973764 0.056506 0.25000  -0.274127297297
 N2 0.973765 0.556516 0.25000  -0.274127297297
