#======================================================================

# CRYSTAL DATA

#----------------------------------------------------------------------

data_VESTA_phase_1


_pd_phase_name                         MOF
_cell_length_a                         16.07200
_cell_length_b                         18.86300
_cell_length_c                         18.37900
_cell_angle_alpha                      90.28900
_cell_angle_beta                       90.03500
_cell_angle_gamma                      89.88300
_symmetry_space_group_name_H-M         "P 1"
_symmetry_Int_Tables_number            1

loop_
_symmetry_equiv_pos_as_xyz
   "x, y, z"

loop_
   _atom_site_label
   _atom_site_fract_x
   _atom_site_fract_y
   _atom_site_fract_z
 _atom_site_charge
 Zn1 0.471448 0.716315 0.22195  0.83690247549
 Zn1 0.031468 0.719198 0.77817  0.83690247549
 Zn1 0.028326 0.218981 0.72175  0.83690247549
 Zn1 0.468472 0.216407 0.27808  0.83690247549
 Zn1 0.971627 0.781011 0.27827  0.83690247549
 Zn1 0.531507 0.783575 0.72193  0.83690247549
 Zn1 0.528573 0.283631 0.77805  0.83690247549
 Zn1 0.968527 0.280799 0.22184  0.83690247549
 H1 0.83061 0.693681 0.51637  0.0795762254902
 H1 0.822574 0.786627 0.52302  0.0795762254902
 H1 0.70119 0.767537 0.61439  0.0795762254902
 H1 0.731788 0.678288 0.61925  0.0795762254902
 H1 0.741264 0.851619 0.3196  0.0795762254902
 H1 0.801157 0.763679 0.38674  0.0795762254902
 H1 0.768147 0.675042 0.38354  0.0795762254902
 H1 0.823419 0.606482 0.59974  0.0795762254902
 H1 0.278185 0.043918 0.73980  0.0795762254902
 H1 0.523835 0.158294 0.51182  0.0795762254902
 H1 0.669614 0.695828 0.48610  0.0795762254902
 H1 0.681143 0.788267 0.47805  0.0795762254902
 H1 0.903494 0.868495 0.7707  0.0795762254902
 H1 0.160507 0.968629 0.78394  0.0795762254902
 H1 0.510346 0.095226 0.63081  0.0795762254902
 H1 0.159521 0.466228 0.70977  0.0795762254902
 H1 0.276592 0.543101 0.7531  0.0795762254902
 H1 0.303413 0.475768 0.9526  0.0795762254902
 H1 0.307867 0.972461 0.5433  0.0795762254902
 H1 0.0 0.460719 0.66821  0.0795762254902
 H1 0.673997 0.606042 0.4059  0.0795762254902
 H1 0.260019 0.790121 0.66790  0.0795762254902
 H1 0.256737 0.292316 0.83267  0.0795762254902
 H1 0.075447 0.560621 0.74361  0.0795762254902
 H1 0.762198 0.85549 0.68063  0.0795762254902
 H1 0.380612 0.86403 0.62617  0.0795762254902
 H1 0.608932 0.48738 0.41287  0.0795762254902
 H1 0.376779 0.367598 0.87367  0.0795762254902
 H1 0.511195 0.593421 0.86878  0.0795762254902
 H1 0.321846 0.035966 0.42509  0.0795762254902
 H1 0.887114 0.486958 0.59340  0.0795762254902
 H1 0.60059 0.864431 0.2287  0.0795762254902
 H1 0.319133 0.537535 0.07214  0.0795762254902
 H1 0.426043 0.558967 0.25696  0.0795762254902
 H1 0.482603 0.460416 0.33531  0.0795762254902
 H1 0.526271 0.655022 0.98903  0.0795762254902
 H1 0.668981 0.193144 0.01524  0.0795762254902
 H1 0.676615 0.286002 0.02298  0.0795762254902
 H1 0.798189 0.265678 0.11425  0.0795762254902
 H1 0.767498 0.176515 0.11820  0.0795762254902
 H1 0.756945 0.352724 0.81966  0.0795762254902
 H1 0.698019 0.264335 0.8864  0.0795762254902
 H1 0.731571 0.175787 0.88237  0.0795762254902
 H1 0.675505 0.105135 0.097  0.0795762254902
 H1 0.223285 0.542579 0.23732  0.0795762254902
 H1 0.977987 0.65974 0.01139  0.0795762254902
 H1 0.830025 0.195624 0.98520  0.0795762254902
 H1 0.817983 0.28813 0.97811  0.0795762254902
 H1 0.595632 0.36599 0.27115  0.0795762254902
 H1 0.340376 0.466538 0.28204  0.0795762254902
 H1 0.990865 0.595545 0.12983  0.0795762254902
 H1 0.340164 0.965205 0.21340  0.0795762254902
 H1 0.222268 0.041354 0.25699  0.0795762254902
 H1 0.196509 0.974813 0.4548  0.0795762254902
 H1 0.192366 0.471504 0.04171  0.0795762254902
 H1 0.484707 0.958979 0.16658  0.0795762254902
 H1 0.825872 0.10679 0.90416  0.0795762254902
 H1 0.238949 0.288009 0.16782  0.0795762254902
 H1 0.24331 0.789633 0.33336  0.0795762254902
 H1 0.425254 0.05838 0.24293  0.0795762254902
 H1 0.736781 0.353509 0.18095  0.0795762254902
 H1 0.118867 0.362681 0.12559  0.0795762254902
 H1 0.891906 0.988261 0.91056  0.0795762254902
 H1 0.122664 0.864404 0.37489  0.0795762254902
 H1 0.987951 0.091706 0.37014  0.0795762254902
 H1 0.178788 0.536052 0.92385  0.0795762254902
 H1 0.612276 0.985672 0.09089  0.0795762254902
 H1 0.89744 0.366502 0.72904  0.0795762254902
 H1 0.181631 0.038559 0.57353  0.0795762254902
 H1 0.075257 0.061544 0.75642  0.0795762254902
 H1 0.018937 0.962222 0.83359  0.0795762254902
 H1 0.97365 0.155188 0.48946  0.0795762254902
 H1 0.330977 0.806748 0.98472  0.0795762254902
 H1 0.323304 0.713889 0.97703  0.0795762254902
 H1 0.20178 0.734179 0.88572  0.0795762254902
 H1 0.232422 0.823355 0.88177  0.0795762254902
 H1 0.24297 0.64723 0.1803  0.0795762254902
 H1 0.301919 0.73562 0.11352  0.0795762254902
 H1 0.268377 0.824171 0.11760  0.0795762254902
 H1 0.324421 0.894747 0.90241  0.0795762254902
 H1 0.776718 0.457412 0.76268  0.0795762254902
 H1 0.021966 0.340239 0.98862  0.0795762254902
 H1 0.169934 0.804337 0.01477  0.0795762254902
 H1 0.181929 0.711828 0.02189  0.0795762254902
 H1 0.404358 0.633947 0.72880  0.0795762254902
 H1 0.659612 0.533444 0.71797  0.0795762254902
 H1 0.0 0.404436 0.87018  0.0795762254902
 H1 0.660126 0.034722 0.78671  0.0795762254902
 H1 0.778141 0.958694 0.74316  0.0795762254902
 H1 0.803563 0.0 0.54530  0.0795762254902
 H1 0.807632 0.528511 0.95829  0.0795762254902
 H1 0.515272 0.040919 0.83356  0.0795762254902
 H1 0.174095 0.893194 0.09586  0.0795762254902
 H1 0.76102 0.711979 0.83219  0.0795762254902
 H1 0.756692 0.210331 0.66662  0.0795762254902
 H1 0.574728 0.941557 0.75716  0.0795762254902
 H1 0.263204 0.646389 0.81900  0.0795762254902
 H1 0.881112 0.637316 0.87442  0.0795762254902
 H1 0.10811 0.011747 0.08952  0.0795762254902
 H1 0.877431 0.13567 0.62512  0.0795762254902
 H1 0.0 0.908497 0.62980  0.0795762254902
 H1 0.821191 0.463959 0.0761  0.0795762254902
 H1 0.387669 0.014198 0.90920  0.0795762254902
 H1 0.102477 0.633454 0.2709  0.0795762254902
 H1 0.818333 0.961312 0.42666  0.0795762254902
 H1 0.924774 0.938472 0.24368  0.0795762254902
 H1 0.981109 0.0378 0.16652  0.0795762254902
 H1 0.02665 0.844962 0.51051  0.0795762254902
 H1 0.169376 0.306276 0.48365  0.0795762254902
 H1 0.177418 0.213331 0.47699  0.0795762254902
 H1 0.298799 0.232423 0.38563  0.0795762254902
 H1 0.268217 0.321677 0.38078  0.0795762254902
 H1 0.258648 0.148347 0.68046  0.0795762254902
 H1 0.198821 0.236241 0.61327  0.0795762254902
 H1 0.231799 0.324885 0.61649  0.0795762254902
 H1 0.176591 0.393495 0.40026  0.0795762254902
 H1 0.721827 0.956076 0.26026  0.0795762254902
 H1 0.476158 0.841722 0.48821  0.0795762254902
 H1 0.330362 0.30414 0.51395  0.0795762254902
 H1 0.31885 0.211696 0.52197  0.0795762254902
 H1 0.096541 0.131503 0.22921  0.0795762254902
 H1 0.839497 0.031362 0.21610  0.0795762254902
 H1 0.489643 0.904804 0.36923  0.0795762254902
 H1 0.840469 0.533785 0.29026  0.0795762254902
 H1 0.723438 0.456862 0.24686  0.0795762254902
 H1 0.696612 0.524143 0.047  0.0795762254902
 H1 0.692186 0.027506 0.45664  0.0795762254902
 H1 0.984438 0.539265 0.33180  0.0795762254902
 H1 0.325912 0.393927 0.59420  0.0795762254902
 H1 0.739975 0.209889 0.33210  0.0795762254902
 H1 0.743206 0.707636 0.16729  0.0795762254902
 H1 0.924547 0.439364 0.25641  0.0795762254902
 H1 0.237811 0.1445 0.31937  0.0795762254902
 H1 0.619387 0.135982 0.37385  0.0795762254902
 H1 0.391008 0.512575 0.58725  0.0795762254902
 H1 0.623208 0.632303 0.12629  0.0795762254902
 H1 0.48882 0.406498 0.13123  0.0795762254902
 H1 0.678203 0.96399 0.57493  0.0795762254902
 H1 0.112906 0.513023 0.40660  0.0795762254902
 H1 0.399309 0.135522 0.77133  0.0795762254902
 H1 0.680874 0.462395 0.92786  0.0795762254902
 H1 0.574051 0.440885 0.74297  0.0795762254902
 H1 0.51744 0.53948 0.664  0.0795762254902
 H1 0.473726 0.344918 0.01097  0.0795762254902
 C1 0.61617 0.716994 0.31498  0.13827247549
 C2 0.427246 0.139058 0.39003  0.62135247549
 C3 0.786813 0.737232 0.52836  -0.17742252451
 C4 0.75422 0.731688 0.6063  -0.0544475245098
 C1 0.885277 0.719268 0.68682  0.13827247549
 C5 0.68941 0.816488 0.30804  0.0199958088235
 C4 0.747205 0.729279 0.39555  -0.0544475245098
 C6 0.916481 0.647528 0.67407  0.15823247549
 C2 0.131459 0.831266 0.7565  0.62135247549
 C7 0.202264 0.875136 0.72791  -0.22124752451
 C7 0.199984 0.375002 0.76944  -0.22124752451
 C8 0.405834 0.531907 0.90362  0.25855497549
 C2 0.427739 0.637626 0.109  0.62135247549
 C8 0.334662 0.958327 0.67962  0.25855497549
 C8 0.407813 0.030991 0.59402  0.25855497549
 C9 0.879823 0.595395 0.63017  -0.0150696836007
 C9 0.273466 0.988481 0.72390  -0.0150696836007
 C9 0.47666 0.117551 0.51907  -0.0150696836007
 C3 0.715038 0.737691 0.47345  -0.17742252451
 C8 0.331831 0.459962 0.81692  0.25855497549
 C6 0.583924 0.645938 0.32842  0.15823247549
 C5 0.881896 0.824689 0.73749  0.0199958088235
 C7 0.422786 0.600634 0.03821  -0.22124752451
 C9 0.208011 0.94666 0.7481  -0.0150696836007
 C9 0.469526 0.082695 0.58521  -0.0150696836007
 C9 0.206376 0.445604 0.74684  -0.0150696836007
 C9 0.271528 0.488304 0.77071  -0.0150696836007
 C9 0.351857 0.515208 0.9605  -0.0150696836007
 C9 0.35466 0.013458 0.53649  -0.0150696836007
 C9 0.986898 0.513256 0.66753  -0.0150696836007
 C9 0.618568 0.594666 0.37422  -0.0150696836007
 C7 0.422836 0.101466 0.46095  -0.22124752451
 C9 0.264075 0.845979 0.68280  -0.0150696836007
 C9 0.261149 0.347553 0.81613  -0.0150696836007
 C5 0.020661 0.56795 0.70945  0.0199958088235
 C5 0.813506 0.819891 0.69263  0.0199958088235
 C9 0.330692 0.887091 0.65881  -0.0150696836007
 C9 0.581887 0.527807 0.3777  -0.0150696836007
 C9 0.327478 0.389484 0.83968  -0.0150696836007
 C9 0.469586 0.581623 0.91387  -0.0150696836007
 C9 0.362575 0.048789 0.47060  -0.0150696836007
 C9 0.91568 0.528049 0.62701  -0.0150696836007
 C5 0.621348 0.821152 0.26281  0.0199958088235
 C9 0.360758 0.549614 0.02721  -0.0150696836007
 C5 0.479913 0.56654 0.29219  0.0199958088235
 C9 0.511819 0.512629 0.33583  -0.0150696836007
 C9 0.477616 0.615672 0.98075  -0.0150696836007
 C2 0.129174 0.33015 0.74196  0.62135247549
 C1 0.883397 0.218597 0.81451  0.13827247549
 C2 0.07477 0.640424 0.88950  0.62135247549
 C3 0.712601 0.236543 0.02777  -0.17742252451
 C4 0.74513 0.230129 0.10575  -0.0544475245098
 C1 0.614143 0.217342 0.18609  0.13827247549
 C5 0.809161 0.317845 0.80798  0.0199958088235
 C4 0.752207 0.229928 0.89494  -0.0544475245098
 C6 0.583134 0.145702 0.17294  0.15823247549
 C2 0.368147 0.32863 0.25613  0.62135247549
 C7 0.297636 0.372938 0.22705  -0.22124752451
 C7 0.299852 0.873157 0.27148  -0.22124752451
 C8 0.093544 0.030389 0.4055  0.25855497549
 C2 0.07271 0.139168 0.61027  0.62135247549
 C8 0.165704 0.457037 0.17809  0.25855497549
 C8 0.092928 0.530666 0.09266  0.25855497549
 C9 0.619496 0.093857 0.12837  -0.0150696836007
 C9 0.227396 0.486959 0.22195  -0.0150696836007
 C9 0.024805 0.618462 0.01834  -0.0150696836007
 C3 0.784369 0.237584 0.97295  -0.17742252451
 C8 0.167223 0.957397 0.31947  0.25855497549
 C6 0.916197 0.147545 0.82761  0.15823247549
 C5 0.617307 0.322381 0.23757  0.0199958088235
 C7 0.077533 0.101263 0.53908  -0.22124752451
 C9 0.292552 0.444711 0.24658  -0.0150696836007
 C9 0.031615 0.582998 0.08419  -0.0150696836007
 C9 0.29321 0.94409 0.24994  -0.0150696836007
 C9 0.227623 0.986403 0.27398  -0.0150696836007
 C9 0.148119 0.014553 0.46244  -0.0150696836007
 C9 0.1459 0.512996 0.03505  -0.0150696836007
 C9 0.51317 0.0 0.16592  -0.0150696836007
 C9 0.881625 0.095826 0.87274  -0.0150696836007
 C7 0.078544 0.60231 0.96021  -0.22124752451
 C9 0.235425 0.344022 0.18225  -0.0150696836007
 C9 0.238687 0.845086 0.31756  -0.0150696836007
 C5 0.479642 0.065919 0.20844  0.0199958088235
 C5 0.685647 0.317828 0.19268  0.0199958088235
 C9 0.169057 0.385574 0.15796  -0.0150696836007
 C9 0.918833 0.029038 0.8759  -0.0150696836007
 C9 0.17202 0.88669 0.34141  -0.0150696836007
 C9 0.029897 0.080508 0.41523  -0.0150696836007
 C9 0.13824 0.548887 0.96947  -0.0150696836007
 C9 0.583876 0.026544 0.1249  -0.0150696836007
 C5 0.8772 0.322985 0.76289  0.0199958088235
 C9 0.139694 0.050054 0.52856  -0.0150696836007
 C5 0.021081 0.068715 0.79137  0.0199958088235
 C9 0.989312 0.014381 0.83436  -0.0150696836007
 C9 0.022325 0.115608 0.48158  -0.0150696836007
 C2 0.370902 0.828716 0.24330  0.62135247549
 C1 0.116556 0.78138 0.18550  0.13827247549
 C2 0.925177 0.359572 0.11051  0.62135247549
 C3 0.287339 0.763357 0.97221  -0.17742252451
 C4 0.254818 0.76975 0.89423  -0.0544475245098
 C1 0.385814 0.782572 0.813  0.13827247549
 C5 0.190763 0.682116 0.19199  0.0199958088235
 C4 0.247734 0.77003 0.10505  -0.0544475245098
 C6 0.416818 0.854209 0.82707  0.15823247549
 C2 0.631831 0.671354 0.74388  0.62135247549
 C7 0.702344 0.627047 0.77296  -0.22124752451
 C7 0.700269 0.126793 0.72856  -0.22124752451
 C8 0.906708 0.969669 0.59452  0.25855497549
 C2 0.927342 0.860826 0.38979  0.62135247549
 C8 0.834287 0.542958 0.82192  0.25855497549
 C8 0.907056 0.46933 0.90734  0.25855497549
 C9 0.380445 0.906036 0.87166  -0.0150696836007
 C9 0.772598 0.513032 0.77806  -0.0150696836007
 C9 0.975155 0.381523 0.98167  -0.0150696836007
 C3 0.215569 0.762363 0.02704  -0.17742252451
 C8 0.833037 0.042656 0.68060  0.25855497549
 C6 0.083781 0.852446 0.17243  0.15823247549
 C5 0.382674 0.677546 0.76239  0.0199958088235
 C7 0.922579 0.898729 0.46100  -0.22124752451
 C9 0.707436 0.555275 0.75343  -0.0150696836007
 C9 0.968358 0.416989 0.91582  -0.0150696836007
 C9 0.707039 0.055883 0.75016  -0.0150696836007
 C9 0.772687 0.013624 0.72612  -0.0150696836007
 C9 0.852003 0.985405 0.53769  -0.0150696836007
 C9 0.854087 0.48701 0.96495  -0.0150696836007
 C9 0.486797 0.988413 0.83419  -0.0150696836007
 C9 0.118362 0.904169 0.12731  -0.0150696836007
 C7 0.921417 0.397685 0.03980  -0.22124752451
 C9 0.764552 0.655966 0.81776  -0.0150696836007
 C9 0.761401 0.154895 0.68246  -0.0150696836007
 C5 0.520329 0.934005 0.79163  0.0199958088235
 C5 0.314332 0.682079 0.80728  0.0199958088235
 C9 0.830925 0.61442 0.84205  -0.0150696836007
 C9 0.081181 0.970969 0.12409  -0.0150696836007
 C9 0.828119 0.113345 0.65862  -0.0150696836007
 C9 0.970415 0.919615 0.58477  -0.0150696836007
 C9 0.861734 0.451117 0.03053  -0.0150696836007
 C9 0.416075 0.973343 0.87509  -0.0150696836007
 C5 0.122727 0.676977 0.23709  0.0199958088235
 C9 0.860382 0.949895 0.47156  -0.0150696836007
 C5 0.978939 0.931298 0.20872  0.0199958088235
 C9 0.01072 0.985635 0.16574  -0.0150696836007
 C9 0.977931 0.884498 0.51842  -0.0150696836007
 C2 0.629161 0.171208 0.75671  0.62135247549
 C1 0.383805 0.282929 0.68506  0.13827247549
 C2 0.57276 0.860934 0.61000  0.62135247549
 C3 0.213177 0.262728 0.47166  -0.17742252451
 C4 0.245775 0.268279 0.39370  -0.0544475245098
 C1 0.114722 0.280714 0.31319  0.13827247549
 C5 0.310521 0.183464 0.69203  0.0199958088235
 C4 0.252764 0.270655 0.60448  -0.0544475245098
 C6 0.083517 0.352452 0.32594  0.15823247549
 C2 0.868537 0.168734 0.24351  0.62135247549
 C7 0.797736 0.124864 0.27211  -0.22124752451
 C7 0.799976 0.624983 0.23056  -0.22124752451
 C8 0.59418 0.468016 0.09639  0.25855497549
 C2 0.572245 0.362327 0.89010  0.62135247549
 C8 0.665342 0.041678 0.32042  0.25855497549
 C8 0.592206 0.969007 0.40602  0.25855497549
 C9 0.120183 0.404585 0.36984  -0.0150696836007
 C9 0.726542 0.011517 0.27614  -0.0150696836007
 C9 0.523345 0.882454 0.48096  -0.0150696836007
 C3 0.284946 0.262267 0.52658  -0.17742252451
 C8 0.668176 0.539974 0.18308  0.25855497549
 C6 0.416068 0.353977 0.67160  0.15823247549
 C5 0.118124 0.175305 0.262  0.0199958088235
 C7 0.577216 0.399302 0.96179  -0.22124752451
 C9 0.79199 0.053338 0.2518  -0.0150696836007
 C9 0.530476 0.917318 0.41483  -0.0150696836007
 C9 0.793611 0.554385 0.25317  -0.0150696836007
 C9 0.728481 0.511658 0.22930  -0.0150696836007
 C9 0.64816 0.484711 0.03944  -0.0150696836007
 C9 0.645378 0.986521 0.46354  -0.0150696836007
 C9 0.013109 0.486727 0.33248  -0.0150696836007
 C9 0.38139 0.405273 0.62585  -0.0150696836007
 C7 0.577181 0.898525 0.5390  -0.22124752451
 C9 0.735919 0.154029 0.31721  -0.0150696836007
 C9 0.738813 0.652403 0.18385  -0.0150696836007
 C5 0.979337 0.432033 0.29056  0.0199958088235
 C5 0.186503 0.180098 0.30736  0.0199958088235
 C9 0.66931 0.112917 0.34122  -0.0150696836007
 C9 0.418087 0.472126 0.62228  -0.0150696836007
 C9 0.672509 0.610445 0.16030  -0.0150696836007
 C9 0.530426 0.418301 0.08614  -0.0150696836007
 C9 0.637464 0.951183 0.52942  -0.0150696836007
 C9 0.084331 0.471932 0.37300  -0.0150696836007
 C5 0.378581 0.178797 0.7372  0.0199958088235
 C9 0.639244 0.450321 0.97279  -0.0150696836007
 C5 0.520146 0.433339 0.70777  0.0199958088235
 C9 0.488211 0.487271 0.66418  -0.0150696836007
 C9 0.52238 0.384267 0.01925  -0.0150696836007
 C2 0.87077 0.66986 0.25803  0.62135247549
 N1 0.81597 0.753498 0.66090  0.0139174754902
 N1 0.685814 0.750893 0.3407  0.0139174754902
 N2 0.987267 0.633104 0.71225  -0.36732252451
 N2 0.5141 0.6312 0.2889  -0.36732252451
 N2 0.577072 0.759481 0.26724  -0.36732252451
 N2 0.925276 0.76231 0.7337  -0.36732252451
 N1 0.683345 0.251661 0.16044  0.0139174754902
 N1 0.813416 0.252108 0.84033  0.0139174754902
 N2 0.512784 0.131014 0.21146  -0.36732252451
 N2 0.986378 0.133318 0.78847  -0.36732252451
 N2 0.922132 0.261467 0.76706  -0.36732252451
 N2 0.574094 0.260106 0.23335  -0.36732252451
 N1 0.316619 0.748237 0.83954  0.0139174754902
 N1 0.186525 0.747861 0.15966  0.0139174754902
 N2 0.487178 0.868913 0.78858  -0.36732252451
 N2 0.013615 0.866682 0.21159  -0.36732252451
 N2 0.077811 0.738506 0.23293  -0.36732252451
 N2 0.425873 0.739827 0.76663  -0.36732252451
 N1 0.184028 0.246482 0.33911  0.0139174754902
 N1 0.314146 0.249044 0.65933  0.0139174754902
 N2 0.012728 0.366878 0.28777  -0.36732252451
 N2 0.485935 0.36869 0.71  -0.36732252451
 N2 0.42289 0.240449 0.73281  -0.36732252451
 N2 0.074735 0.23768 0.26624  -0.36732252451
 O1 0.485936 0.185627 0.38131  -0.63067952451
 O2 0.403447 1.4e-05 0.66188  -0.29959752451
 O3 0.374685 0.126237 0.34053  -0.628704191176
 O3 0.079732 0.857891 0.79994  -0.628704191176
 O2 0.399861 0.502669 0.83468  -0.29959752451
 O1 0.129339 0.765734 0.73448  -0.63067952451
 O1 0.486061 0.684708 0.11878  -0.63067952451
 O3 0.375941 0.623813 0.15946  -0.628704191176
 O3 0.077089 0.355178 0.69800  -0.628704191176
 O1 0.127149 0.265372 0.76545  -0.63067952451
 O1 0.0 0.688195 0.88129  -0.63067952451
 O2 0.097016 0.499126 0.16025  -0.29959752451
 O3 0.126913 0.626727 0.83999  -0.628704191176
 O3 0.419894 0.355043 0.29964  -0.628704191176
 O2 0.098455 0.999489 0.33732  -0.29959752451
 O1 0.369987 0.262983 0.23447  -0.63067952451
 O1 0.0 0.185666 0.61898  -0.63067952451
 O3 0.125302 0.126574 0.65962  -0.628704191176
 O3 0.423201 0.854775 0.20040  -0.628704191176
 O1 0.372627 0.763311 0.26511  -0.63067952451
 O1 0.982978 0.311814 0.11873  -0.63067952451
 O2 0.902977 0.500873 0.83976  -0.29959752451
 O3 0.873016 0.373264 0.16000  -0.628704191176
 O3 0.580093 0.644946 0.70036  -0.628704191176
 O2 0.901846 0.0 0.66273  -0.29959752451
 O1 0.62998 0.736997 0.76555  -0.63067952451
 O1 0.986505 0.814325 0.38104  -0.63067952451
 O3 0.874715 0.873427 0.34047  -0.628704191176
 O3 0.576873 0.145156 0.79962  -0.628704191176
 O1 0.627398 0.236608 0.73488  -0.63067952451
 O1 0.514062 0.814369 0.61871  -0.63067952451
 O2 0.596557 0.999995 0.33816  -0.29959752451
 O3 0.62531 0.873758 0.6595  -0.628704191176
 O3 0.920262 0.142111 0.20007  -0.628704191176
 O2 0.600158 0.497254 0.16532  -0.29959752451
 O1 0.870658 0.234267 0.26553  -0.63067952451
 O1 0.513929 0.315242 0.88121  -0.63067952451
 O3 0.624024 0.376161 0.84053  -0.628704191176
 O3 0.922906 0.644829 0.30194  -0.628704191176
 O1 0.872732 0.734657 0.2345  -0.63067952451
