#======================================================================

# CRYSTAL DATA

#----------------------------------------------------------------------

data_VESTA_phase_1


_pd_phase_name                         MOF
_cell_length_a                         14.07000
_cell_length_b                         15.81100
_cell_length_c                         26.04300
_cell_angle_alpha                      90.00200
_cell_angle_beta                       89.99800
_cell_angle_gamma                      93.29100
_symmetry_space_group_name_H-M         "P 1"
_symmetry_Int_Tables_number            1

loop_
_symmetry_equiv_pos_as_xyz
   "x, y, z"

loop_
   _atom_site_label
   _atom_site_fract_x
   _atom_site_fract_y
   _atom_site_fract_z
 _atom_site_charge
 Cd1 0.873249 0.995526 0.03237  0.820941760204
 Cd1 0.620828 0.996134 0.97006  0.820941760204
 Cd1 0.126735 0.504515 0.53238  0.820941760204
 Cd1 0.379157 0.503907 0.47005  0.820941760204
 Cd1 0.126723 0.004498 0.96762  0.820941760204
 Cd1 0.379146 0.003884 0.02993  0.820941760204
 Cd1 0.873246 0.495503 0.46761  0.820941760204
 Cd1 0.620825 0.496111 0.52994  0.820941760204
 P1 0.097123 0.29158 0.24373  1.4760717602
 P1 0.663941 0.749308 0.26012  1.4760717602
 P1 0.902853 0.208434 0.74373  1.4760717602
 P1 0.33605 0.75073 0.76013  1.4760717602
 P1 0.902855 0.70845 0.75627  1.4760717602
 P1 0.336039 0.250714 0.73987  1.4760717602
 P1 0.097126 0.791594 0.25626  1.4760717602
 P1 0.663895 0.249283 0.23987  1.4760717602
 H1 0.382546 0.914251 0.19928  0.100610635204
 H1 0.335194 0.846176 0.24881  0.100610635204
 H1 0.429088 0.812341 0.20883  0.100610635204
 H1 0.435234 0.031051 0.25951  0.100610635204
 H1 0.503301 0.00341 0.31447  0.100610635204
 H1 0.379254 0.970393 0.31009  0.100610635204
 H1 0.679051 0.893896 0.07085  0.100610635204
 H1 0.608208 0.494806 0.30075  0.100610635204
 H1 0.242899 0.525369 0.36993  0.100610635204
 H1 0.329312 0.306085 0.4369  0.100610635204
 H1 0.863104 0.201302 0.20418  0.100610635204
 H1 0.555699 0.749348 0.34987  0.100610635204
 H1 0.231852 0.214822 0.37447  0.100610635204
 H1 0.895687 0.795261 0.20357  0.100610635204
 H1 0.502973 0.441907 0.37328  0.100610635204
 H1 0.146274 0.131324 0.1656  0.100610635204
 H1 0.076358 0.056899 0.08776  0.100610635204
 H1 0.804462 0.123696 0.1251  0.100610635204
 H1 0.14181 0.44476 0.30498  0.100610635204
 H1 0.614661 0.789598 0.1360  0.100610635204
 H1 0.950109 0.89598 0.13385  0.100610635204
 H1 0.453926 0.685508 0.41936  0.100610635204
 H1 0.391348 0.334455 0.12268  0.100610635204
 H1 0.298035 0.265824 0.09617  0.100610635204
 H1 0.319067 0.266964 0.16384  0.100610635204
 H1 0.328886 0.463318 0.08993  0.100610635204
 H1 0.209213 0.487288 0.10593  0.100610635204
 H1 0.230625 0.408227 0.05877  0.100610635204
 H1 0.862261 0.543298 0.22806  0.100610635204
 H1 0.931967 0.500908 0.27797  0.100610635204
 H1 0.863497 0.431347 0.23706  0.100610635204
 H1 0.9357 0.591378 0.16070  0.100610635204
 H1 0.0 0.534938 0.12861  0.100610635204
 H1 0.057079 0.60669 0.17935  0.100610635204
 H1 0.783415 0.028835 0.39270  0.100610635204
 H1 0.677425 0.973192 0.41514  0.100610635204
 H1 0.677949 0.024716 0.35423  0.100610635204
 H1 0.884538 0.923936 0.39244  0.100610635204
 H1 0.870589 0.838755 0.34772  0.100610635204
 H1 0.81355 0.830228 0.40866  0.100610635204
 H1 0.617443 0.585736 0.69930  0.100610635204
 H1 0.664778 0.653824 0.74883  0.100610635204
 H1 0.570903 0.687651 0.70884  0.100610635204
 H1 0.564697 0.468922 0.75953  0.100610635204
 H1 0.49663 0.496587 0.81449  0.100610635204
 H1 0.620691 0.529615 0.81011  0.100610635204
 H1 0.320937 0.606115 0.57086  0.100610635204
 H1 0.391814 0.0 0.80075  0.100610635204
 H1 0.757072 0.974675 0.86992  0.100610635204
 H1 0.670685 0.193929 0.93698  0.100610635204
 H1 0.136868 0.298699 0.70417  0.100610635204
 H1 0.4443 0.750687 0.84987  0.100610635204
 H1 0.768143 0.285192 0.87449  0.100610635204
 H1 0.104296 0.704822 0.70357  0.100610635204
 H1 0.497031 0.058099 0.87329  0.100610635204
 H1 0.853702 0.368691 0.66566  0.100610635204
 H1 0.923616 0.443114 0.58777  0.100610635204
 H1 0.19551 0.376309 0.62516  0.100610635204
 H1 0.858148 0.055254 0.80498  0.100610635204
 H1 0.385338 0.710411 0.63610  0.100610635204
 H1 0.049866 0.6041 0.63385  0.100610635204
 H1 0.546066 0.814526 0.91937  0.100610635204
 H1 0.608631 0.165566 0.62270  0.100610635204
 H1 0.701943 0.234193 0.59618  0.100610635204
 H1 0.680918 0.233058 0.66385  0.100610635204
 H1 0.671093 0.036702 0.58993  0.100610635204
 H1 0.790773 0.0 0.60593  0.100610635204
 H1 0.769357 0.091791 0.55878  0.100610635204
 H1 0.137712 0.956736 0.72805  0.100610635204
 H1 0.067995 0.999114 0.77797  0.100610635204
 H1 0.136462 0.068656 0.73707  0.100610635204
 H1 0.064289 0.908678 0.66068  0.100610635204
 H1 0.974777 0.965092 0.62862  0.100610635204
 H1 0.942925 0.893329 0.67936  0.100610635204
 H1 0.216484 0.4712 0.89270  0.100610635204
 H1 0.322502 0.526848 0.91513  0.100610635204
 H1 0.321947 0.475289 0.85422  0.100610635204
 H1 0.115399 0.57614 0.89244  0.100610635204
 H1 0.12936 0.661305 0.84771  0.100610635204
 H1 0.186391 0.66985 0.90865  0.100610635204
 H1 0.617432 0.085743 0.80070  0.100610635204
 H1 0.664776 0.153827 0.75117  0.100610635204
 H1 0.570891 0.187656 0.79116  0.100610635204
 H1 0.564712 0.96895 0.74047  0.100610635204
 H1 0.496655 0.996609 0.6855  0.100610635204
 H1 0.620705 0.029611 0.68989  0.100610635204
 H1 0.320926 0.106116 0.9291  0.100610635204
 H1 0.391783 0.505214 0.69925  0.100610635204
 H1 0.757079 0.474657 0.63007  0.100610635204
 H1 0.670667 0.693936 0.56304  0.100610635204
 H1 0.136871 0.798719 0.79581  0.100610635204
 H1 0.444281 0.25067 0.65012  0.100610635204
 H1 0.768125 0.785203 0.62552  0.100610635204
 H1 0.104294 0.204778 0.79643  0.100610635204
 H1 0.497013 0.558111 0.62671  0.100610635204
 H1 0.853704 0.868707 0.83434  0.100610635204
 H1 0.923617 0.94313 0.91223  0.100610635204
 H1 0.195512 0.876327 0.87483  0.100610635204
 H1 0.858165 0.555269 0.69501  0.100610635204
 H1 0.385322 0.210416 0.86391  0.100610635204
 H1 0.049867 0.104055 0.86614  0.100610635204
 H1 0.54605 0.314507 0.58063  0.100610635204
 H1 0.608632 0.665567 0.87731  0.100610635204
 H1 0.701942 0.734199 0.90382  0.100610635204
 H1 0.680913 0.733062 0.83616  0.100610635204
 H1 0.671097 0.536702 0.91006  0.100610635204
 H1 0.790771 0.512737 0.89406  0.100610635204
 H1 0.769353 0.591793 0.94122  0.100610635204
 H1 0.137716 0.456732 0.77193  0.100610635204
 H1 0.068004 0.499117 0.7220  0.100610635204
 H1 0.136473 0.568683 0.76292  0.100610635204
 H1 0.064278 0.408645 0.83928  0.100610635204
 H1 0.974819 0.465086 0.87137  0.100610635204
 H1 0.942895 0.393337 0.82064  0.100610635204
 H1 0.216533 0.971206 0.60729  0.100610635204
 H1 0.322536 0.02684 0.58486  0.100610635204
 H1 0.321992 0.975306 0.6457  0.100610635204
 H1 0.115419 0.076106 0.60755  0.100610635204
 H1 0.129376 0.161283 0.65228  0.100610635204
 H1 0.186411 0.169812 0.59134  0.100610635204
 H1 0.382525 0.414322 0.30069  0.100610635204
 H1 0.335186 0.346227 0.25117  0.100610635204
 H1 0.429055 0.312401 0.29116  0.100610635204
 H1 0.435278 0.531119 0.24045  0.100610635204
 H1 0.503347 0.503441 0.18550  0.100610635204
 H1 0.379285 0.470419 0.18988  0.100610635204
 H1 0.679043 0.393903 0.42913  0.100610635204
 H1 0.608127 0.994781 0.19924  0.100610635204
 H1 0.242915 0.025352 0.13007  0.100610635204
 H1 0.329269 0.806094 0.06301  0.100610635204
 H1 0.863111 0.701327 0.29582  0.100610635204
 H1 0.555611 0.249327 0.15014  0.100610635204
 H1 0.231814 0.714835 0.12550  0.100610635204
 H1 0.895671 0.295201 0.2964  0.100610635204
 H1 0.502945 0.941916 0.12669  0.100610635204
 H1 0.146278 0.631335 0.33433  0.100610635204
 H1 0.076364 0.55691 0.41222  0.100610635204
 H1 0.80447 0.623714 0.37483  0.100610635204
 H1 0.141844 0.944777 0.19502  0.100610635204
 H1 0.614636 0.289611 0.363  0.100610635204
 H1 0.950109 0.39592 0.36613  0.100610635204
 H1 0.453885 0.18549 0.0806  0.100610635204
 H1 0.391353 0.834454 0.37729  0.100610635204
 H1 0.298043 0.765828 0.40381  0.100610635204
 H1 0.31906 0.766963 0.33614  0.100610635204
 H1 0.328896 0.963319 0.41006  0.100610635204
 H1 0.209214 0.987263 0.39407  0.100610635204
 H1 0.230635 0.908231 0.44122  0.100610635204
 H1 0.862271 0.043295 0.27195  0.100610635204
 H1 0.931985 0.000914 0.22203  0.100610635204
 H1 0.863516 0.931374 0.26293  0.100610635204
 H1 0.935689 0.091339 0.33933  0.100610635204
 H1 0.0 0.034938 0.37138  0.100610635204
 H1 0.057042 0.106708 0.32063  0.100610635204
 H1 0.783503 0.528802 0.10730  0.100610635204
 H1 0.677478 0.473175 0.08486  0.100610635204
 H1 0.678035 0.52472 0.14577  0.100610635204
 H1 0.884564 0.42385 0.10755  0.100610635204
 H1 0.870595 0.338688 0.15228  0.100610635204
 H1 0.813572 0.330139 0.09134  0.100610635204
 C1 0.400536 0.866834 0.22800  -0.162723239796
 C1 0.44602 0.981843 0.28850  -0.162723239796
 C2 0.725252 0.870369 0.1005  0.217865510204
 C3 0.18156 0.323411 0.33475  0.381804260204
 C4 0.574066 0.538547 0.32611  -0.302308239796
 C3 0.008498 0.167853 0.19133  0.381804260204
 C2 0.239458 0.456329 0.36902  0.217865510204
 C2 0.287233 0.333883 0.40681  0.217865510204
 C4 0.912016 0.168721 0.17980  -0.302308239796
 C3 0.751539 0.784177 0.1737  0.381804260204
 C4 0.545378 0.680845 0.35277  -0.302308239796
 C4 0.233673 0.283671 0.37245  -0.302308239796
 C4 0.84641 0.814259 0.17413  -0.302308239796
 C2 0.515187 0.50945 0.3658  0.217865510204
 C4 0.070192 0.129477 0.1579  -0.302308239796
 C2 0.031244 0.088715 0.11475  0.217865510204
 C5 0.183017 0.368513 0.17196  0.617851760204
 C5 0.046712 0.426475 0.2046  0.617851760204
 C3 0.588154 0.625856 0.31895  0.381804260204
 C2 0.879566 0.126122 0.13580  0.217865510204
 C4 0.183361 0.411665 0.33297  -0.302308239796
 C4 0.689136 0.812271 0.13680  -0.302308239796
 C2 0.87613 0.871655 0.13603  0.217865510204
 C2 0.487887 0.645389 0.39160  0.217865510204
 C1 0.319148 0.306139 0.12929  -0.162723239796
 C1 0.255496 0.436949 0.09530  -0.162723239796
 C1 0.906665 0.491296 0.23838  -0.162723239796
 C1 0.002324 0.559637 0.1656  -0.162723239796
 C5 0.696633 0.87151 0.31988  0.617851760204
 C5 0.554199 0.86656 0.2733  0.617851760204
 C1 0.720716 0.989173 0.38080  -0.162723239796
 C1 0.834745 0.874224 0.37730  -0.162723239796
 C1 0.599443 0.633162 0.72801  -0.162723239796
 C1 0.553926 0.518169 0.78851  -0.162723239796
 C2 0.274736 0.629658 0.60053  0.217865510204
 C3 0.818417 0.176604 0.83476  0.381804260204
 C4 0.425949 0.96149 0.8261  -0.302308239796
 C3 0.991478 0.332157 0.69133  0.381804260204
 C2 0.760511 0.043686 0.86902  0.217865510204
 C2 0.712756 0.166131 0.90683  0.217865510204
 C4 0.087958 0.331284 0.67979  -0.302308239796
 C3 0.248453 0.715868 0.67373  0.381804260204
 C4 0.454624 0.819191 0.85277  -0.302308239796
 C4 0.766314 0.216344 0.87246  -0.302308239796
 C4 0.153574 0.685807 0.6741  -0.302308239796
 C2 0.484824 0.990585 0.86586  0.217865510204
 C4 0.929783 0.370536 0.65797  -0.302308239796
 C2 0.96873 0.411297 0.61476  0.217865510204
 C5 0.81696 0.131503 0.67196  0.617851760204
 C5 0.953261 0.073536 0.70464  0.617851760204
 C3 0.411855 0.87418 0.81895  0.381804260204
 C2 0.120408 0.373884 0.63580  0.217865510204
 C4 0.816606 0.08835 0.83297  -0.302308239796
 C4 0.310857 0.687754 0.63681  -0.302308239796
 C2 0.12385 0.62841 0.63603  0.217865510204
 C2 0.512112 0.854645 0.89161  0.217865510204
 C1 0.680832 0.19388 0.62930  -0.162723239796
 C1 0.744483 0.063069 0.59531  -0.162723239796
 C1 0.093305 0.0 0.73838  -0.162723239796
 C1 0.997655 0.940398 0.66565  -0.162723239796
 C5 0.303324 0.628536 0.81988  0.617851760204
 C5 0.445766 0.633461 0.77338  0.617851760204
 C1 0.279203 0.510875 0.88079  -0.162723239796
 C1 0.165197 0.625844 0.87730  -0.162723239796
 C1 0.599437 0.133166 0.77199  -0.162723239796
 C1 0.553937 0.018165 0.71149  -0.162723239796
 C2 0.274726 0.129649 0.89947  0.217865510204
 C3 0.818416 0.676617 0.66524  0.381804260204
 C4 0.425922 0.461472 0.6738  -0.302308239796
 C3 0.99148 0.832175 0.8086  0.381804260204
 C2 0.76052 0.543696 0.63097  0.217865510204
 C2 0.712746 0.66614 0.59318  0.217865510204
 C4 0.087961 0.831303 0.82020  -0.302308239796
 C3 0.248443 0.21585 0.82627  0.381804260204
 C4 0.454603 0.319173 0.64722  -0.302308239796
 C4 0.766304 0.716354 0.62755  -0.302308239796
 C4 0.15357 0.185774 0.82586  -0.302308239796
 C2 0.484798 0.490568 0.63414  0.217865510204
 C4 0.929785 0.870553 0.8420  -0.302308239796
 C2 0.968732 0.911314 0.88524  0.217865510204
 C5 0.816964 0.631514 0.82803  0.617851760204
 C5 0.953265 0.573552 0.79534  0.617851760204
 C3 0.411831 0.374163 0.68105  0.381804260204
 C2 0.12041 0.873902 0.86419  0.217865510204
 C4 0.816615 0.588362 0.66702  -0.302308239796
 C4 0.310845 0.187748 0.86319  -0.302308239796
 C2 0.123847 0.128376 0.86396  0.217865510204
 C2 0.512093 0.354627 0.60839  0.217865510204
 C1 0.680831 0.693885 0.87071  -0.162723239796
 C1 0.744485 0.563073 0.90469  -0.162723239796
 C1 0.093308 0.508732 0.76161  -0.162723239796
 C1 0.997654 0.440388 0.83433  -0.162723239796
 C5 0.303331 0.128517 0.68012  0.617851760204
 C5 0.445768 0.133454 0.7266  0.617851760204
 C1 0.279235 0.010858 0.61919  -0.162723239796
 C1 0.165216 0.125815 0.622  -0.162723239796
 C1 0.400521 0.366888 0.27198  -0.162723239796
 C1 0.446048 0.481866 0.21148  -0.162723239796
 C2 0.725242 0.370362 0.39946  0.217865510204
 C3 0.181559 0.823425 0.16523  0.381804260204
 C4 0.573995 0.038523 0.17388  -0.302308239796
 C3 0.008501 0.667868 0.30866  0.381804260204
 C2 0.239469 0.956341 0.13097  0.217865510204
 C2 0.287207 0.833893 0.09316  0.217865510204
 C4 0.912021 0.668741 0.32020  -0.302308239796
 C3 0.751517 0.284154 0.32626  0.381804260204
 C4 0.545304 0.180823 0.14723  -0.302308239796
 C4 0.23365 0.783683 0.12753  -0.302308239796
 C4 0.846396 0.314216 0.32585  -0.302308239796
 C2 0.515139 0.009429 0.13412  0.217865510204
 C4 0.070196 0.629489 0.34202  -0.302308239796
 C2 0.03125 0.588727 0.38523  0.217865510204
 C5 0.183022 0.868522 0.32803  0.617851760204
 C5 0.046721 0.926491 0.29535  0.617851760204
 C3 0.588074 0.125832 0.18105  0.381804260204
 C2 0.879572 0.62614 0.36419  0.217865510204
 C4 0.183377 0.91168 0.16702  -0.302308239796
 C4 0.689116 0.312267 0.36318  -0.302308239796
 C2 0.876124 0.371611 0.36395  0.217865510204
 C2 0.487836 0.14537 0.1083  0.217865510204
 C1 0.31915 0.806141 0.370  -0.162723239796
 C1 0.255505 0.936953 0.40469  -0.162723239796
 C1 0.906676 0.991294 0.26162  -0.162723239796
 C1 0.002328 0.05963 0.33435  -0.162723239796
 C5 0.696628 0.371465 0.18011  0.617851760204
 C5 0.554197 0.366567 0.22661  0.617851760204
 C1 0.720775 0.489134 0.11920  -0.162723239796
 C1 0.834762 0.374148 0.12269  -0.162723239796
 N1 0.937366 0.085277 0.10420  -0.348523239796
 N1 0.817106 0.899391 0.09984  -0.348523239796
 N1 0.4712 0.561511 0.39789  -0.348523239796
 N1 0.291234 0.419101 0.40503  -0.348523239796
 N2 0.253896 0.37369 0.13598  -0.0939426147959
 N2 0.985842 0.490113 0.20210  -0.0939426147959
 N2 0.752723 0.913788 0.35537  -0.0939426147959
 N2 0.471342 0.904056 0.26332  -0.0939426147959
 N3 0.025539 0.365864 0.24114  -0.884310739796
 N3 0.185335 0.302207 0.20571  -0.884310739796
 N4 0.119998 0.429762 0.17097  -0.701113239796
 N3 0.732075 0.800013 0.29967  -0.884310739796
 N3 0.56843 0.79358 0.24691  -0.884310739796
 N4 0.612742 0.9049 0.30869  -0.701113239796
 N1 0.062607 0.414732 0.60420  -0.348523239796
 N1 0.182876 0.600654 0.59985  -0.348523239796
 N1 0.528803 0.938523 0.89789  -0.348523239796
 N1 0.708745 0.080913 0.90504  -0.348523239796
 N2 0.746083 0.126329 0.63598  -0.0939426147959
 N2 0.014135 0.0 0.70210  -0.0939426147959
 N2 0.247218 0.586267 0.85537  -0.0939426147959
 N2 0.528621 0.595954 0.76333  -0.0939426147959
 N3 0.974434 0.134148 0.74114  -0.884310739796
 N3 0.814641 0.197808 0.70572  -0.884310739796
 N4 0.879975 0.070252 0.67097  -0.701113239796
 N3 0.267904 0.700042 0.79968  -0.884310739796
 N3 0.431552 0.706438 0.74692  -0.884310739796
 N4 0.38721 0.595131 0.80869  -0.701113239796
 N1 0.062608 0.914749 0.89579  -0.348523239796
 N1 0.18287 0.100633 0.90015  -0.348523239796
 N1 0.528782 0.438506 0.6021  -0.348523239796
 N1 0.708745 0.580922 0.59496  -0.348523239796
 N2 0.746086 0.626337 0.86402  -0.0939426147959
 N2 0.014133 0.509912 0.7978  -0.0939426147959
 N2 0.247235 0.086244 0.64462  -0.0939426147959
 N2 0.528623 0.095951 0.73667  -0.0939426147959
 N3 0.974438 0.634165 0.75885  -0.884310739796
 N3 0.814646 0.697824 0.7942  -0.884310739796
 N4 0.879981 0.570265 0.82902  -0.701113239796
 N3 0.267897 0.200016 0.70032  -0.884310739796
 N3 0.431546 0.206433 0.75308  -0.884310739796
 N4 0.387219 0.095119 0.6913  -0.701113239796
 N1 0.937373 0.585291 0.39579  -0.348523239796
 N1 0.817103 0.399365 0.40014  -0.348523239796
 N1 0.471162 0.061491 0.10209  -0.348523239796
 N1 0.291226 0.919111 0.09495  -0.348523239796
 N2 0.2539 0.873693 0.36401  -0.0939426147959
 N2 0.985846 0.990102 0.29790  -0.0939426147959
 N2 0.752742 0.41373 0.14462  -0.0939426147959
 N2 0.471348 0.404084 0.23667  -0.0939426147959
 N3 0.025546 0.86588 0.25886  -0.884310739796
 N3 0.185338 0.802216 0.29428  -0.884310739796
 N4 0.120007 0.929773 0.32903  -0.701113239796
 N3 0.732033 0.299949 0.20030  -0.884310739796
 N3 0.56841 0.293596 0.2530  -0.884310739796
 N4 0.612752 0.404884 0.19130  -0.701113239796
 Cl1 0.716054 0.079692 0.04225  -0.536003239796
 Cl1 0.764027 0.893855 0.9663  -0.536003239796
 Cl1 0.965597 0.090062 0.96460  -0.536003239796
 Cl1 0.511219 0.887497 0.02628  -0.536003239796
 Cl1 0.283916 0.420316 0.54225  -0.536003239796
 Cl1 0.235957 0.606188 0.46636  -0.536003239796
 Cl1 0.034374 0.409949 0.46459  -0.536003239796
 Cl1 0.488768 0.612531 0.52630  -0.536003239796
 Cl1 0.283915 0.920323 0.95774  -0.536003239796
 Cl1 0.235949 0.106167 0.03362  -0.536003239796
 Cl1 0.034376 0.909963 0.03539  -0.536003239796
 Cl1 0.488755 0.112519 0.97370  -0.536003239796
 Cl1 0.716064 0.579701 0.45774  -0.536003239796
 Cl1 0.764025 0.393833 0.53363  -0.536003239796
 Cl1 0.965606 0.59007 0.53540  -0.536003239796
 Cl1 0.511213 0.387487 0.47370  -0.536003239796
 O1 0.041239 0.199492 0.23850  -0.446600739796
 O1 0.128749 0.270173 0.30210  -0.446600739796
 O1 0.644975 0.650887 0.27777  -0.446600739796
 O1 0.720633 0.722075 0.20928  -0.446600739796
 O1 0.95874 0.300521 0.73851  -0.446600739796
 O1 0.871227 0.229843 0.80211  -0.446600739796
 O1 0.355034 0.849151 0.77777  -0.446600739796
 O1 0.279365 0.777968 0.70929  -0.446600739796
 O1 0.958742 0.800537 0.76149  -0.446600739796
 O1 0.871226 0.729856 0.69789  -0.446600739796
 O1 0.355014 0.349135 0.72223  -0.446600739796
 O1 0.279354 0.277952 0.79071  -0.446600739796
 O1 0.041239 0.699507 0.26149  -0.446600739796
 O1 0.128754 0.770188 0.19789  -0.446600739796
 O1 0.644884 0.150858 0.22223  -0.446600739796
 O1 0.720605 0.222055 0.29070  -0.446600739796
