#======================================================================

# CRYSTAL DATA

#----------------------------------------------------------------------

data_VESTA_phase_1


_pd_phase_name                         MOF
_cell_length_a                         13.07500
_cell_length_b                         13.97500
_cell_length_c                         16.92400
_cell_angle_alpha                      90.00100
_cell_angle_beta                       90.00000
_cell_angle_gamma                      89.90000
_symmetry_space_group_name_H-M         "P 1"
_symmetry_Int_Tables_number            1

loop_
_symmetry_equiv_pos_as_xyz
   "x, y, z"

loop_
   _atom_site_label
   _atom_site_fract_x
   _atom_site_fract_y
   _atom_site_fract_z
 _atom_site_charge
 Zn1 0.977638 0.407676 0.57044  0.822251923077
 Zn1 0.928443 0.482406 0.90369  0.822251923077
 Zn1 0.02236 0.092308 0.07042  0.822251923077
 Zn1 0.071539 0.017584 0.40368  0.822251923077
 Zn1 0.476222 0.592225 0.929  0.822251923077
 Zn1 0.427344 0.519378 0.59612  0.822251923077
 Zn1 0.523768 0.907768 0.42947  0.822251923077
 Zn1 0.572635 0.980634 0.09611  0.822251923077
 Zn1 0.022365 0.592301 0.42958  0.822251923077
 Zn1 0.071557 0.517582 0.09632  0.822251923077
 Zn1 0.977646 0.907681 0.92959  0.822251923077
 Zn1 0.928437 0.982376 0.59635  0.822251923077
 Zn1 0.523781 0.407779 0.07052  0.822251923077
 Zn1 0.572647 0.480619 0.40391  0.822251923077
 Zn1 0.476214 0.092218 0.57051  0.822251923077
 Zn1 0.427368 0.019382 0.90389  0.822251923077
 H1 0.945644 0.200384 0.65110  0.0818119230769
 H1 0.738906 0.358964 0.50487  0.0818119230769
 H2 0.060573 0.227475 0.35845  0.348071923077
 H2 0.067171 0.336822 0.40548  0.348071923077
 H2 0.724817 0.61254 0.3169  0.348071923077
 H2 0.848126 0.651677 0.33497  0.348071923077
 H1 0.054367 0.299581 0.15107  0.0818119230769
 H1 0.261085 0.141038 0.0048  0.0818119230769
 H2 0.939362 0.272515 0.85846  0.348071923077
 H2 0.932794 0.163165 0.90548  0.348071923077
 H2 0.275235 0.887433 0.81698  0.348071923077
 H2 0.15193 0.848274 0.83497  0.348071923077
 H1 0.44295 0.800415 0.84893  0.0818119230769
 H1 0.237694 0.639644 0.99540  0.0818119230769
 H2 0.558852 0.771762 0.14116  0.348071923077
 H2 0.566082 0.662757 0.09371  0.348071923077
 H2 0.224449 0.385891 0.18268  0.348071923077
 H2 0.348289 0.347372 0.16559  0.348071923077
 H1 0.557186 0.699585 0.34897  0.0818119230769
 H1 0.762253 0.860271 0.49542  0.0818119230769
 H2 0.440933 0.728239 0.64112  0.348071923077
 H2 0.433761 0.837228 0.59367  0.348071923077
 H2 0.77555 0.114102 0.68265  0.348071923077
 H2 0.651735 0.15266 0.6655  0.348071923077
 H1 0.054268 0.799588 0.34890  0.0818119230769
 H1 0.261039 0.641096 0.49523  0.0818119230769
 H2 0.939424 0.772482 0.64157  0.348071923077
 H2 0.932823 0.663137 0.59453  0.348071923077
 H2 0.275191 0.387495 0.68310  0.348071923077
 H2 0.151888 0.348328 0.66510  0.348071923077
 H1 0.945623 0.700409 0.84895  0.0818119230769
 H1 0.738912 0.858964 0.99517  0.0818119230769
 H2 0.060659 0.727466 0.14156  0.348071923077
 H2 0.067221 0.836819 0.09454  0.348071923077
 H2 0.724776 0.112565 0.18303  0.348071923077
 H2 0.848084 0.151715 0.16504  0.348071923077
 H1 0.557054 0.199593 0.15107  0.0818119230769
 H1 0.762305 0.360357 0.00463  0.0818119230769
 H2 0.441144 0.228252 0.85885  0.348071923077
 H2 0.433914 0.337256 0.90630  0.348071923077
 H2 0.775554 0.614095 0.81733  0.348071923077
 H2 0.651716 0.652622 0.83442  0.348071923077
 H1 0.442705 0.300393 0.65101  0.0818119230769
 H1 0.237684 0.139645 0.50462  0.0818119230769
 H2 0.558993 0.271761 0.35887  0.348071923077
 H2 0.566136 0.162757 0.40630  0.348071923077
 H2 0.224415 0.885839 0.31736  0.348071923077
 H2 0.348238 0.847299 0.33446  0.348071923077
 C1 0.967062 0.416482 0.74202  0.517031923077
 C1 0.923931 0.515862 0.71929  0.517031923077
 C2 0.031077 0.219144 0.47468  0.641771923077
 C3 0.973236 0.191167 0.59133  0.267486923077
 C2 0.798305 0.546853 0.40697  0.641771923077
 C3 0.774337 0.420949 0.47779  0.267486923077
 C1 0.032943 0.083509 0.24200  0.517031923077
 C1 0.076065 0.984117 0.21927  0.517031923077
 C2 0.968887 0.280839 0.97468  0.641771923077
 C3 0.02676 0.308803 0.09130  0.267486923077
 C2 0.20172 0.95312 0.9069  0.641771923077
 C3 0.225666 0.079047 0.97778  0.267486923077
 C1 0.467838 0.583996 0.75785  0.517031923077
 C1 0.422766 0.485423 0.78037  0.517031923077
 C2 0.529528 0.7807 0.02489  0.641771923077
 C3 0.470961 0.809346 0.90861  0.267486923077
 C2 0.298314 0.451871 0.09317  0.641771923077
 C3 0.273526 0.577753 0.02246  0.267486923077
 C1 0.53215 0.916006 0.25784  0.517031923077
 C1 0.577232 0.014581 0.28036  0.517031923077
 C2 0.470384 0.719292 0.52488  0.641771923077
 C3 0.529104 0.690652 0.40862  0.267486923077
 C2 0.701687 0.048121 0.5931  0.641771923077
 C3 0.726442 0.922189 0.5224  0.267486923077
 C1 0.032952 0.583482 0.25800  0.517031923077
 C1 0.07607 0.484098 0.2807  0.517031923077
 C2 0.968892 0.780821 0.52534  0.641771923077
 C3 0.026696 0.808804 0.40868  0.267486923077
 C2 0.201684 0.453166 0.59309  0.641771923077
 C3 0.225628 0.579088 0.52229  0.267486923077
 C1 0.967068 0.916449 0.75801  0.517031923077
 C1 0.923926 0.015833 0.78073  0.517031923077
 C2 0.031118 0.719148 0.02534  0.641771923077
 C3 0.973235 0.691186 0.90872  0.267486923077
 C2 0.798286 0.046877 0.09304  0.641771923077
 C3 0.774334 0.920953 0.02223  0.267486923077
 C1 0.532185 0.416008 0.24216  0.517031923077
 C1 0.577253 0.514583 0.21965  0.517031923077
 C2 0.470471 0.219312 0.97511  0.641771923077
 C3 0.529041 0.190663 0.09140  0.267486923077
 C2 0.701689 0.548126 0.90685  0.641771923077
 C3 0.726474 0.422247 0.9775  0.267486923077
 C1 0.467844 0.08399 0.74215  0.517031923077
 C1 0.422763 0.985413 0.71964  0.517031923077
 C2 0.529531 0.280694 0.4751  0.641771923077
 C3 0.4708 0.309329 0.5913  0.267486923077
 C2 0.298281 0.951828 0.40686  0.641771923077
 C3 0.27351 0.077744 0.47755  0.267486923077
 N1 0.999281 0.263952 0.54232  -0.537333076923
 N2 0.986634 0.106232 0.55797  -0.326855576923
 N2 0.024288 0.122899 0.4820  -0.326855576923
 N3 0.070832 0.263751 0.41041  -0.764518076923
 N2 0.869827 0.447924 0.49124  -0.326855576923
 N2 0.885903 0.529729 0.44628  -0.326855576923
 N1 0.725995 0.47984 0.42574  -0.537333076923
 N3 0.782734 0.622293 0.35746  -0.764518076923
 N1 0.000704 0.236024 0.042  -0.537333076923
 N2 0.013343 0.393741 0.05796  -0.326855576923
 N2 0.975676 0.377082 0.98207  -0.326855576923
 N3 0.929112 0.236234 0.91042  -0.764518076923
 N2 0.130178 0.052066 0.9912  -0.326855576923
 N2 0.114118 0.970244 0.9462  -0.326855576923
 N1 0.274017 0.020153 0.92574  -0.537333076923
 N3 0.217311 0.877675 0.85747  -0.764518076923
 N1 0.496836 0.736229 0.95747  -0.537333076923
 N2 0.485192 0.894186 0.94190  -0.326855576923
 N2 0.52346 0.876975 0.01755  -0.326855576923
 N3 0.569475 0.735807 0.08907  -0.764518076923
 N2 0.369377 0.551334 0.00927  -0.326855576923
 N2 0.386069 0.469492 0.05420  -0.326855576923
 N1 0.225433 0.518514 0.0742  -0.537333076923
 N3 0.28285 0.376323 0.14257  -0.764518076923
 N1 0.50315 0.763767 0.45746  -0.537333076923
 N2 0.514853 0.605812 0.44190  -0.326855576923
 N2 0.476487 0.623019 0.51754  -0.326855576923
 N3 0.430327 0.764178 0.58903  -0.764518076923
 N2 0.630603 0.948634 0.50927  -0.326855576923
 N2 0.61393 0.03051 0.55418  -0.326855576923
 N1 0.774552 0.981439 0.57425  -0.537333076923
 N3 0.717171 0.123689 0.64252  -0.764518076923
 N1 0.000673 0.736018 0.45769  -0.537333076923
 N2 0.013299 0.893737 0.44203  -0.326855576923
 N2 0.975672 0.877066 0.51795  -0.326855576923
 N3 0.929156 0.736208 0.58961  -0.764518076923
 N2 0.130152 0.552082 0.50882  -0.326855576923
 N2 0.114093 0.470264 0.55377  -0.326855576923
 N1 0.273976 0.520205 0.5743  -0.537333076923
 N3 0.21727 0.377732 0.64261  -0.764518076923
 N1 0.999296 0.763964 0.95773  -0.537333076923
 N2 0.986655 0.606248 0.94206  -0.326855576923
 N2 0.024328 0.622905 0.01794  -0.326855576923
 N3 0.0709 0.763749 0.08960  -0.764518076923
 N2 0.869824 0.947931 0.0087  -0.326855576923
 N2 0.885887 0.029751 0.0537  -0.326855576923
 N1 0.725986 0.979849 0.07427  -0.537333076923
 N3 0.7827 0.122322 0.14254  -0.764518076923
 N1 0.503162 0.263781 0.04254  -0.537333076923
 N2 0.514812 0.105824 0.05810  -0.326855576923
 N2 0.476543 0.123037 0.98245  -0.326855576923
 N3 0.430522 0.264205 0.91093  -0.764518076923
 N2 0.630625 0.448669 0.99075  -0.326855576923
 N2 0.613934 0.53051 0.94582  -0.326855576923
 N1 0.774568 0.481481 0.9257  -0.537333076923
 N3 0.717155 0.623671 0.85745  -0.764518076923
 N1 0.496747 0.236217 0.54252  -0.537333076923
 N2 0.485077 0.394171 0.55809  -0.326855576923
 N2 0.523451 0.376967 0.48245  -0.326855576923
 N3 0.569569 0.235806 0.4109  -0.764518076923
 N2 0.369359 0.051319 0.4907  -0.326855576923
 N2 0.386043 0.969456 0.44582  -0.326855576923
 N1 0.225405 0.018491 0.42578  -0.537333076923
 N3 0.282803 0.876263 0.35748  -0.764518076923
 O1 0.991155 0.359177 0.68706  -0.532768076923
 O2 0.920017 0.533523 0.64597  -0.552878076923
 O2 0.897541 0.569051 0.77623  -0.552878076923
 O1 0.977376 0.396121 0.8146  -0.532768076923
 O1 0.0 0.140809 0.18704  -0.532768076923
 O2 0.079986 0.966462 0.14594  -0.552878076923
 O2 0.102459 0.930926 0.2762  -0.552878076923
 O1 0.022624 0.103871 0.31463  -0.532768076923
 O1 0.492579 0.640781 0.81293  -0.532768076923
 O2 0.418192 0.467315 0.85361  -0.552878076923
 O2 0.395693 0.433095 0.72314  -0.552878076923
 O1 0.478938 0.604152 0.68525  -0.532768076923
 O1 0.507418 0.859217 0.31292  -0.532768076923
 O2 0.5818 0.032697 0.35360  -0.552878076923
 O2 0.604308 0.066903 0.22313  -0.552878076923
 O1 0.521045 0.895851 0.18524  -0.532768076923
 O1 0.0 0.640788 0.31296  -0.532768076923
 O2 0.079984 0.466465 0.35407  -0.552878076923
 O2 0.102452 0.430879 0.22382  -0.552878076923
 O1 0.022647 0.603847 0.18538  -0.532768076923
 O1 0.991172 0.859158 0.8129  -0.532768076923
 O2 0.920015 0.033523 0.85405  -0.552878076923
 O2 0.897508 0.068985 0.7237  -0.552878076923
 O1 0.977394 0.896088 0.68539  -0.532768076923
 O1 0.507439 0.359225 0.18708  -0.532768076923
 O2 0.581816 0.532697 0.14641  -0.552878076923
 O2 0.604326 0.566906 0.27688  -0.552878076923
 O1 0.521094 0.395845 0.31476  -0.532768076923
 O1 0.492579 0.140774 0.68707  -0.532768076923
 O2 0.41819 0.967293 0.64640  -0.552878076923
 O2 0.395691 0.933095 0.77687  -0.552878076923
 O1 0.478948 0.104153 0.81475  -0.532768076923
