#======================================================================

# CRYSTAL DATA

#----------------------------------------------------------------------

data_VESTA_phase_1


_pd_phase_name                         MOF
_cell_length_a                         13.63700
_cell_length_b                         13.61800
_cell_length_c                         16.92600
_cell_angle_alpha                      90.00200
_cell_angle_beta                       90.00500
_cell_angle_gamma                      117.78100
_symmetry_space_group_name_H-M         "P 1"
_symmetry_Int_Tables_number            1

loop_
_symmetry_equiv_pos_as_xyz
   "x, y, z"

loop_
   _atom_site_label
   _atom_site_fract_x
   _atom_site_fract_y
   _atom_site_fract_z
 _atom_site_charge
 Zn1 0.089242 0.10963 0.49679  0.920481428571
 Zn1 0.910172 0.390295 0.99960  0.920481428571
 Zn1 0.910169 0.890303 0.50039  0.920481428571
 Zn1 0.089244 0.609654 0.  0.920481428571
 H1 0.324065 0.166078 0.511  0.115296428571
 H1 0.508952 0.330623 0.51547  0.115296428571
 H1 0.344155 0.532555 0.47891  0.115296428571
 H1 0.167099 0.35912 0.47547  0.115296428571
 H1 0.945693 0.266349 0.336  0.115296428571
 H1 0.849963 0.310687 0.22549  0.115296428571
 H1 0.69894 0.157715 0.15084  0.115296428571
 H1 0.740229 0.918311 0.29462  0.115296428571
 H1 0.49365 0.881776 0.29103  0.115296428571
 H1 0.390484 0.685113 0.33960  0.115296428571
 H1 0.548123 0.582823 0.16126  0.115296428571
 H1 0.65128 0.779328 0.11298  0.115296428571
 H1 0.310458 0.310427 0.32183  0.115296428571
 H1 0.127782 0.169034 0.2710  0.115296428571
 H1 0.027199 0.222879 0.16931  0.115296428571
 H1 0.288702 0.558473 0.17489  0.115296428571
 H1 0.675071 0.334149 0.01044  0.115296428571
 H1 0.490011 0.169688 0.01274  0.115296428571
 H1 0.65546 0.967411 0.98137  0.115296428571
 H1 0.832606 0.140772 0.97879  0.115296428571
 H1 0.05254 0.23416 0.83739  0.115296428571
 H1 0.146829 0.189515 0.72602  0.115296428571
 H1 0.297218 0.342277 0.6507  0.115296428571
 H1 0.259186 0.582157 0.79630  0.115296428571
 H1 0.50698 0.618198 0.7897  0.115296428571
 H1 0.611742 0.814923 0.83792  0.115296428571
 H1 0.449801 0.917281 0.66286  0.115296428571
 H1 0.345019 0.720693 0.61500  0.115296428571
 H1 0.691883 0.18943 0.82196  0.115296428571
 H1 0.874238 0.330443 0.77042  0.115296428571
 H1 0.973201 0.27642 0.66761  0.115296428571
 H1 0.710597 0.941334 0.67325  0.115296428571
 H1 0.675067 0.834149 0.48953  0.115296428571
 H1 0.490005 0.669687 0.48725  0.115296428571
 H1 0.655466 0.467399 0.51863  0.115296428571
 H1 0.832609 0.640775 0.52120  0.115296428571
 H1 0.052525 0.734145 0.66261  0.115296428571
 H1 0.146814 0.689513 0.77  0.115296428571
 H1 0.297188 0.842286 0.84926  0.115296428571
 H1 0.259148 0.082135 0.70374  0.115296428571
 H1 0.506927 0.118132 0.71031  0.115296428571
 H1 0.611677 0.314832 0.66212  0.115296428571
 H1 0.449803 0.417288 0.83715  0.115296428571
 H1 0.345033 0.220726 0.88503  0.115296428571
 H1 0.69181 0.689358 0.67801  0.115296428571
 H1 0.874193 0.830391 0.72953  0.115296428571
 H1 0.973183 0.776416 0.83235  0.115296428571
 H1 0.710578 0.441318 0.82675  0.115296428571
 H1 0.324068 0.66609 0.98848  0.115296428571
 H1 0.508954 0.830632 0.98459  0.115296428571
 H1 0.34416 0.03256 0.02107  0.115296428571
 H1 0.167101 0.859139 0.02453  0.115296428571
 H1 0.945715 0.766366 0.16391  0.115296428571
 H1 0.84999 0.81071 0.2745  0.115296428571
 H1 0.698951 0.657744 0.34912  0.115296428571
 H1 0.740217 0.418317 0.20533  0.115296428571
 H1 0.493629 0.381745 0.20889  0.115296428571
 H1 0.390437 0.185058 0.16036  0.115296428571
 H1 0.548108 0.082843 0.33873  0.115296428571
 H1 0.65129 0.279372 0.38699  0.115296428571
 H1 0.310416 0.81038 0.17820  0.115296428571
 H1 0.127786 0.668987 0.22905  0.115296428571
 H1 0.027215 0.722865 0.33072  0.115296428571
 H1 0.288677 0.058467 0.32509  0.115296428571
 C1 0.333265 0.249426 0.50425  0.165401428571
 C2 0.43637 0.342722 0.5066  -0.156653571429
 C3 0.445268 0.449242 0.4982  -0.0135385714286
 C2 0.345571 0.453982 0.4863  -0.156653571429
 C1 0.245285 0.357166 0.48443  0.165401428571
 C4 0.904839 0.060889 0.38696  0.676156428571
 C3 0.847358 0.089847 0.32223  -0.0135385714286
 C2 0.878739 0.200654 0.30313  -0.156653571429
 C2 0.825364 0.224859 0.24154  -0.156653571429
 C2 0.741559 0.139707 0.19856  -0.156653571429
 C5 0.71152 0.02935 0.21740  0.245813928571
 C2 0.763129 0.003826 0.2793  -0.156653571429
 C5 0.577511 0.840638 0.19934  0.245813928571
 C2 0.505587 0.815868 0.26361  -0.156653571429
 C2 0.448775 0.706851 0.29064  -0.156653571429
 C5 0.464599 0.623792 0.25351  0.245813928571
 C2 0.53573 0.648381 0.18895  -0.156653571429
 C2 0.592893 0.757616 0.16188  -0.156653571429
 C5 0.310759 0.442362 0.25144  0.245813928571
 C2 0.26536 0.332672 0.2783  -0.156653571429
 C2 0.16353 0.253777 0.24872  -0.156653571429
 C2 0.107069 0.283425 0.19248  -0.156653571429
 C3 0.15257 0.393502 0.16632  -0.0135385714286
 C2 0.255014 0.473451 0.19589  -0.156653571429
 C4 0.092183 0.428001 0.1072  0.676156428571
 C1 0.665981 0.250732 0.00388  0.165401428571
 C2 0.562786 0.157493 0.00546  -0.156653571429
 C3 0.554035 0.050906 0.99818  -0.0135385714286
 C2 0.653916 0.046047 0.98777  -0.156653571429
 C1 0.754261 0.142819 0.98646  0.165401428571
 C4 0.094492 0.439476 0.88895  0.676156428571
 C3 0.151472 0.410618 0.82376  -0.0135385714286
 C2 0.119431 0.299771 0.80433  -0.156653571429
 C2 0.171959 0.27539 0.74226  -0.156653571429
 C2 0.255455 0.360414 0.69902  -0.156653571429
 C5 0.286266 0.470845 0.71821  0.245813928571
 C2 0.235653 0.49656 0.78071  -0.156653571429
 C5 0.420833 0.65935 0.69972  0.245813928571
 C2 0.494446 0.684119 0.76296  -0.156653571429
 C2 0.552201 0.793204 0.78976  -0.156653571429
 C5 0.535633 0.876314 0.75342  0.245813928571
 C2 0.462784 0.851701 0.68990  -0.156653571429
 C2 0.404684 0.742411 0.66308  -0.156653571429
 C5 0.690112 0.057511 0.75070  0.245813928571
 C2 0.73624 0.167112 0.77792  -0.156653571429
 C2 0.837866 0.245791 0.74789  -0.156653571429
 C2 0.893425 0.21603 0.69100  -0.156653571429
 C3 0.847203 0.106062 0.66450  -0.0135385714286
 C2 0.744901 0.026307 0.69445  -0.156653571429
 C4 0.906764 0.071473 0.60471  0.676156428571
 C1 0.66598 0.750735 0.49609  0.165401428571
 C2 0.562784 0.657495 0.49453  -0.156653571429
 C3 0.554028 0.5509 0.50183  -0.0135385714286
 C2 0.653916 0.546045 0.51222  -0.156653571429
 C1 0.75426 0.642818 0.51352  0.165401428571
 C4 0.094462 0.93946 0.61106  0.676156428571
 C3 0.151443 0.910605 0.67626  -0.0135385714286
 C2 0.119413 0.799761 0.69567  -0.156653571429
 C2 0.171935 0.775386 0.75776  -0.156653571429
 C2 0.255434 0.860416 0.80101  -0.156653571429
 C5 0.286234 0.970843 0.78183  0.245813928571
 C2 0.235621 0.996552 0.71932  -0.156653571429
 C5 0.420809 0.159336 0.80032  0.245813928571
 C2 0.494404 0.18407 0.73709  -0.156653571429
 C2 0.55215 0.293139 0.71027  -0.156653571429
 C5 0.535591 0.376268 0.74660  0.245813928571
 C2 0.46277 0.351692 0.81011  -0.156653571429
 C2 0.404679 0.242417 0.83696  -0.156653571429
 C5 0.690063 0.557474 0.74928  0.245813928571
 C2 0.736189 0.667059 0.7220  -0.156653571429
 C2 0.837822 0.745752 0.75207  -0.156653571429
 C2 0.893401 0.716013 0.80897  -0.156653571429
 C3 0.847183 0.606059 0.83549  -0.0135385714286
 C2 0.744873 0.526293 0.80554  -0.156653571429
 C4 0.906758 0.571492 0.89529  0.676156428571
 C1 0.333269 0.749442 0.99581  0.165401428571
 C2 0.436374 0.842737 0.99343  -0.156653571429
 C3 0.445265 0.949249 0.00178  -0.0135385714286
 C2 0.345571 0.953995 0.0136  -0.156653571429
 C1 0.245285 0.857181 0.01558  0.165401428571
 C4 0.904835 0.560904 0.11302  0.676156428571
 C3 0.84736 0.589865 0.17775  -0.0135385714286
 C2 0.878754 0.700673 0.19686  -0.156653571429
 C2 0.825379 0.724881 0.25845  -0.156653571429
 C2 0.741572 0.639733 0.30141  -0.156653571429
 C5 0.711519 0.529373 0.28256  0.245813928571
 C2 0.763123 0.503846 0.22065  -0.156653571429
 C5 0.577507 0.340648 0.30061  0.245813928571
 C2 0.505568 0.315849 0.23633  -0.156653571429
 C2 0.44874 0.206817 0.20932  -0.156653571429
 C5 0.464561 0.12377 0.24646  0.245813928571
 C2 0.535713 0.148389 0.31102  -0.156653571429
 C2 0.59289 0.257638 0.33808  -0.156653571429
 C5 0.310724 0.942342 0.24857  0.245813928571
 C2 0.265339 0.832634 0.22168  -0.156653571429
 C2 0.16352 0.753745 0.25131  -0.156653571429
 C2 0.107075 0.783406 0.30755  -0.156653571429
 C3 0.152563 0.8935 0.33368  -0.0135385714286
 C2 0.254994 0.973444 0.30411  -0.156653571429
 C4 0.09218 0.928016 0.39276  0.676156428571
 N1 0.238322 0.255806 0.49375  -0.292238571429
 N1 0.7611 0.244213 0.99507  -0.292238571429
 N1 0.761102 0.74422 0.50491  -0.292238571429
 N1 0.238327 0.755828 0.  -0.292238571429
 O1 0.995817 0.138305 0.41273  -0.595291071429
 O1 0.858243 0.960244 0.4103  -0.595291071429
 O2 0.631789 0.948194 0.16959  -0.262213571429
 O2 0.412517 0.516233 0.28394  -0.262213571429
 O1 0.139081 0.529963 0.08661  -0.595291071429
 O1 0.998846 0.353413 0.08258  -0.595291071429
 O1 0.002437 0.362565 0.91362  -0.595291071429
 O1 0.14245 0.539442 0.91378  -0.595291071429
 O2 0.365655 0.551766 0.6700  -0.262213571429
 O2 0.58857 0.983955 0.78366  -0.262213571429
 O1 0.858593 0.969963 0.58307  -0.595291071429
 O1 0.0 0.145521 0.58057  -0.595291071429
 O1 0.002411 0.862544 0.58637  -0.595291071429
 O1 0.142441 0.039402 0.58622  -0.595291071429
 O2 0.365629 0.051762 0.82999  -0.262213571429
 O2 0.588511 0.48389 0.71634  -0.262213571429
 O1 0.858608 0.46997 0.91692  -0.595291071429
 O1 0.0 0.645542 0.91942  -0.595291071429
 O1 0.995812 0.638316 0.08727  -0.595291071429
 O1 0.85825 0.460241 0.08960  -0.595291071429
 O2 0.631792 0.448213 0.33036  -0.262213571429
 O2 0.412462 0.016198 0.21605  -0.262213571429
 O1 0.139099 0.029964 0.41339  -0.595291071429
 O1 0.998864 0.853426 0.41742  -0.595291071429
