#======================================================================

# CRYSTAL DATA

#----------------------------------------------------------------------

data_VESTA_phase_1


_pd_phase_name                         MOF
_cell_length_a                         15.45000
_cell_length_b                         19.65800
_cell_length_c                         17.42200
_cell_angle_alpha                      102.57500
_cell_angle_beta                       89.94300
_cell_angle_gamma                      113.18200
_symmetry_space_group_name_H-M         "P 1"
_symmetry_Int_Tables_number            1

loop_
_symmetry_equiv_pos_as_xyz
   "x, y, z"

loop_
   _atom_site_label
   _atom_site_fract_x
   _atom_site_fract_y
   _atom_site_fract_z
 _atom_site_charge
 Zn1 0.081446 0.40417 0.7501  0.949512763158
 Zn1 0.081449 0.904167 0.75014  0.949512763158
 Zn1 0.581449 0.404171 0.75014  0.949512763158
 Zn1 0.581462 0.904171 0.7501  0.949512763158
 Zn1 0.14992 0.237853 0.7535  0.949512763158
 Zn1 0.149937 0.737859 0.75351  0.949512763158
 Zn1 0.649929 0.237856 0.75351  0.949512763158
 Zn1 0.649932 0.737858 0.7535  0.949512763158
 Zn1 0.176888 0.094891 0.24661  0.949512763158
 Zn1 0.1769 0.594898 0.2466  0.949512763158
 Zn1 0.676898 0.094899 0.24661  0.949512763158
 Zn1 0.676896 0.594891 0.2466  0.949512763158
 Zn1 0.411713 0.260928 0.24318  0.949512763158
 Zn1 0.411729 0.760938 0.24318  0.949512763158
 Zn1 0.91173 0.260933 0.24318  0.949512763158
 Zn1 0.911728 0.76093 0.24318  0.949512763158
 H1 0.437032 0.399233 0.60850  0.0924846381579
 H1 0.437051 0.899241 0.60850  0.0924846381579
 H1 0.937046 0.399234 0.60850  0.0924846381579
 H1 0.937047 0.899237 0.60850  0.0924846381579
 H1 0.411847 0.353098 0.46230  0.0924846381579
 H1 0.411867 0.853111 0.46230  0.0924846381579
 H1 0.911864 0.353103 0.46230  0.0924846381579
 H1 0.911863 0.853104 0.46230  0.0924846381579
 H1 0.236312 0.127264 0.48470  0.0924846381579
 H1 0.236324 0.627275 0.48469  0.0924846381579
 H1 0.736315 0.127269 0.48469  0.0924846381579
 H1 0.736321 0.627269 0.484  0.0924846381579
 H1 0.259258 0.172213 0.63076  0.0924846381579
 H1 0.259268 0.672222 0.63076  0.0924846381579
 H1 0.759259 0.172215 0.63076  0.0924846381579
 H1 0.759267 0.672219 0.63076  0.0924846381579
 H1 0.045896 0.028503 0.89843  0.0924846381579
 H1 0.045891 0.528541 0.8984  0.0924846381579
 H1 0.545865 0.028574 0.89844  0.0924846381579
 H1 0.545903 0.528517 0.89843  0.0924846381579
 H1 0.102824 0.065168 0.04135  0.0924846381579
 H1 0.102819 0.565208 0.04136  0.0924846381579
 H1 0.602791 0.065244 0.0413  0.0924846381579
 H1 0.602833 0.565179 0.0413  0.0924846381579
 H1 0.365037 0.23243 0.99731  0.0924846381579
 H1 0.36507 0.732416 0.99730  0.0924846381579
 H1 0.865089 0.232387 0.99729  0.0924846381579
 H1 0.865053 0.732431 0.99731  0.0924846381579
 H1 0.310045 0.196509 0.85447  0.0924846381579
 H1 0.310077 0.696491 0.85446  0.0924846381579
 H1 0.810097 0.196459 0.85445  0.0924846381579
 H1 0.81006 0.69651 0.85447  0.0924846381579
 H1 0.037012 0.099493 0.38823  0.0924846381579
 H1 0.037025 0.5995 0.38823  0.0924846381579
 H1 0.537018 0.099495 0.38823  0.0924846381579
 H1 0.537023 0.599499 0.38823  0.0924846381579
 H1 0.057859 0.145661 0.53443  0.0924846381579
 H1 0.057875 0.64567 0.53443  0.0924846381579
 H1 0.557865 0.145663 0.53443  0.0924846381579
 H1 0.557872 0.645669 0.53443  0.0924846381579
 H1 0.10856 0.371486 0.51203  0.0924846381579
 H1 0.108562 0.871492 0.51203  0.0924846381579
 H1 0.608557 0.371488 0.51203  0.0924846381579
 H1 0.608573 0.871493 0.51203  0.0924846381579
 H1 0.086669 0.326516 0.36596  0.0924846381579
 H1 0.08667 0.826521 0.3659  0.0924846381579
 H1 0.586663 0.326517 0.36597  0.0924846381579
 H1 0.586682 0.826523 0.36596  0.0924846381579
 H1 0.017123 0.470747 0.09873  0.0924846381579
 H1 0.017077 0.970718 0.09872  0.0924846381579
 H1 0.517082 0.470719 0.09872  0.0924846381579
 H1 0.517194 0.97079 0.09873  0.0924846381579
 H1 0.037307 0.434263 0.95569  0.0924846381579
 H1 0.03726 0.934234 0.95569  0.0924846381579
 H1 0.537266 0.434236 0.95569  0.0924846381579
 H1 0.537385 0.934309 0.95570  0.0924846381579
 H1 0.131644 0.266642 0.99895  0.0924846381579
 H1 0.131685 0.766666 0.99896  0.0924846381579
 H1 0.631671 0.266655 0.99896  0.0924846381579
 H1 0.631603 0.766622 0.99894  0.0924846381579
 H1 0.1126 0.302342 0.14190  0.0924846381579
 H1 0.11264 0.802364 0.14191  0.0924846381579
 H1 0.612626 0.302354 0.14191  0.0924846381579
 H1 0.612553 0.802318 0.14189  0.0924846381579
 C1 0.359223 0.317614 0.71559  0.375575263158
 C1 0.359238 0.817617 0.71559  0.375575263158
 C1 0.859231 0.317616 0.71559  0.375575263158
 C1 0.859235 0.817614 0.71559  0.375575263158
 C2 0.348613 0.288987 0.62958  -0.107405986842
 C2 0.348628 0.788996 0.62958  -0.107405986842
 C2 0.84862 0.288989 0.6295  -0.107405986842
 C2 0.848626 0.788992 0.6295  -0.107405986842
 C3 0.392638 0.339729 0.58177  -0.0507603618421
 C3 0.392656 0.839738 0.58177  -0.0507603618421
 C3 0.892654 0.33973 0.58177  -0.0507603618421
 C3 0.892652 0.839733 0.58177  -0.0507603618421
 C3 0.37893 0.314142 0.49995  -0.0507603618421
 C3 0.378948 0.814153 0.49995  -0.0507603618421
 C3 0.87894 0.314147 0.49995  -0.0507603618421
 C3 0.878945 0.814147 0.49995  -0.0507603618421
 C2 0.322184 0.237607 0.46484  -0.107405986842
 C2 0.322194 0.737619 0.46484  -0.107405986842
 C2 0.822185 0.237614 0.46484  -0.107405986842
 C2 0.822192 0.737613 0.46484  -0.107405986842
 C3 0.279863 0.186628 0.51250  -0.0507603618421
 C3 0.279875 0.686638 0.51250  -0.0507603618421
 C3 0.779863 0.186632 0.512  -0.0507603618421
 C3 0.779873 0.686633 0.51250  -0.0507603618421
 C3 0.292764 0.212148 0.59433  -0.0507603618421
 C3 0.292778 0.712158 0.59433  -0.0507603618421
 C3 0.792772 0.21215 0.59433  -0.0507603618421
 C3 0.792776 0.712154 0.59433  -0.0507603618421
 C4 0.306114 0.211405 0.37702  0.738167763158
 C4 0.306138 0.711418 0.37702  0.738167763158
 C4 0.806136 0.211413 0.37702  0.738167763158
 C4 0.806133 0.71141 0.37702  0.738167763158
 C1 0.141611 0.083929 0.78257  0.375575263158
 C1 0.141628 0.583934 0.78257  0.375575263158
 C1 0.641622 0.083932 0.78257  0.375575263158
 C1 0.641625 0.583934 0.78257  0.375575263158
 C2 0.175025 0.108932 0.86690  -0.107405986842
 C2 0.17504 0.608939 0.86690  -0.107405986842
 C2 0.675036 0.108939 0.866  -0.107405986842
 C2 0.675037 0.608938 0.86690  -0.107405986842
 C3 0.116312 0.072349 0.91992  -0.0507603618421
 C3 0.116315 0.572375 0.91992  -0.0507603618421
 C3 0.616299 0.072395 0.9199  -0.0507603618421
 C3 0.616321 0.57236 0.91992  -0.0507603618421
 C3 0.147936 0.092115 0.99948  -0.0507603618421
 C3 0.14794 0.592141 0.99948  -0.0507603618421
 C3 0.647923 0.092162 0.9994  -0.0507603618421
 C3 0.647947 0.592124 0.99948  -0.0507603618421
 C2 0.237983 0.148785 0.02755  -0.107405986842
 C2 0.237999 0.648795 0.0275  -0.107405986842
 C2 0.737995 0.148797 0.02754  -0.107405986842
 C2 0.737997 0.648789 0.02755  -0.107405986842
 C3 0.295436 0.187678 0.97528  -0.0507603618421
 C3 0.295462 0.687674 0.97527  -0.0507603618421
 C3 0.795472 0.187657 0.97526  -0.0507603618421
 C3 0.795451 0.687679 0.9752  -0.0507603618421
 C3 0.264252 0.167614 0.89525  -0.0507603618421
 C3 0.264276 0.667609 0.89525  -0.0507603618421
 C3 0.764286 0.167591 0.89524  -0.0507603618421
 C3 0.764265 0.667618 0.89525  -0.0507603618421
 C4 0.271587 0.165705 0.11283  0.738167763158
 C4 0.271595 0.665716 0.11283  0.738167763158
 C4 0.771592 0.165715 0.11283  0.738167763158
 C4 0.771596 0.66571 0.11283  0.738167763158
 C1 0.040918 0.181051 0.28118  0.375575263158
 C1 0.040925 0.681056 0.28118  0.375575263158
 C1 0.540915 0.18105 0.2811  0.375575263158
 C1 0.540924 0.681052 0.28118  0.375575263158
 C2 0.059048 0.209751 0.36717  -0.107405986842
 C2 0.059058 0.709758 0.36717  -0.107405986842
 C2 0.559051 0.209754 0.36717  -0.107405986842
 C2 0.559064 0.709759 0.36717  -0.107405986842
 C3 0.05213 0.158991 0.41496  -0.0507603618421
 C3 0.052142 0.658998 0.41496  -0.0507603618421
 C3 0.552133 0.158993 0.41496  -0.0507603618421
 C3 0.55214 0.658997 0.41496  -0.0507603618421
 C3 0.064056 0.184613 0.49677  -0.0507603618421
 C3 0.064069 0.684621 0.49677  -0.0507603618421
 C3 0.564061 0.184616 0.49677  -0.0507603618421
 C3 0.564068 0.68462 0.49677  -0.0507603618421
 C2 0.083799 0.261131 0.53188  -0.107405986842
 C2 0.083809 0.761138 0.53188  -0.107405986842
 C2 0.5838 0.261133 0.53188  -0.107405986842
 C2 0.583811 0.761138 0.53188  -0.107405986842
 C3 0.092717 0.312125 0.48423  -0.0507603618421
 C3 0.092724 0.812131 0.48423  -0.0507603618421
 C3 0.592717 0.312127 0.4842  -0.0507603618421
 C3 0.592731 0.812132 0.48423  -0.0507603618421
 C3 0.080066 0.286583 0.40240  -0.0507603618421
 C3 0.08007 0.786589 0.40240  -0.0507603618421
 C3 0.580064 0.286585 0.40240  -0.0507603618421
 C3 0.580078 0.78659 0.40240  -0.0507603618421
 C4 0.094032 0.287348 0.61971  0.738167763158
 C4 0.094046 0.787356 0.61971  0.738167763158
 C4 0.594038 0.287351 0.61971  0.738167763158
 C4 0.594049 0.787356 0.61971  0.738167763158
 C1 0.057341 0.415039 0.21426  0.375575263158
 C1 0.057337 0.915035 0.21426  0.375575263158
 C1 0.557331 0.415033 0.21426  0.375575263158
 C1 0.557347 0.915044 0.21426  0.375575263158
 C2 0.065492 0.390102 0.12986  -0.107405986842
 C2 0.065487 0.890098 0.12986  -0.107405986842
 C2 0.565484 0.390095 0.12986  -0.107405986842
 C2 0.565501 0.89011 0.1298  -0.107405986842
 C3 0.043607 0.426898 0.07704  -0.0507603618421
 C3 0.043579 0.926881 0.07704  -0.0507603618421
 C3 0.54358 0.426879 0.07704  -0.0507603618421
 C3 0.543654 0.926927 0.07704  -0.0507603618421
 C3 0.055335 0.407178 0.99742  -0.0507603618421
 C3 0.055306 0.90716 0.99741  -0.0507603618421
 C3 0.555307 0.407159 0.99741  -0.0507603618421
 C3 0.555383 0.907207 0.99742  -0.0507603618421
 C2 0.088675 0.350547 0.96915  -0.107405986842
 C2 0.088671 0.850544 0.96915  -0.107405986842
 C2 0.588668 0.35054 0.96915  -0.107405986842
 C2 0.58869 0.850557 0.96915  -0.107405986842
 C3 0.106906 0.311404 0.02120  -0.0507603618421
 C3 0.106929 0.811416 0.02121  -0.0507603618421
 C3 0.606918 0.311408 0.02121  -0.0507603618421
 C3 0.606889 0.811397 0.02120  -0.0507603618421
 C3 0.095899 0.331404 0.10128  -0.0507603618421
 C3 0.095921 0.831415 0.10129  -0.0507603618421
 C3 0.59591 0.331408 0.10129  -0.0507603618421
 C3 0.59588 0.831396 0.1012  -0.0507603618421
 C4 0.105286 0.333681 0.88383  0.738167763158
 C4 0.105291 0.833682 0.88383  0.738167763158
 C4 0.605286 0.333678 0.88383  0.738167763158
 C4 0.605307 0.833688 0.8838  0.738167763158
 N1 0.288416 0.304626 0.76328  -0.336330986842
 N1 0.288432 0.804633 0.76329  -0.336330986842
 N1 0.788425 0.304623 0.76328  -0.336330986842
 N1 0.788427 0.804633 0.76328  -0.336330986842
 N2 0.327339 0.345303 0.83797  -0.0614259868421
 N2 0.327359 0.845299 0.83798  -0.0614259868421
 N2 0.82735 0.345295 0.83797  -0.0614259868421
 N2 0.827352 0.84531 0.83797  -0.0614259868421
 N2 0.418192 0.381357 0.83609  -0.0614259868421
 N2 0.41821 0.881358 0.83609  -0.0614259868421
 N2 0.918203 0.381346 0.83609  -0.0614259868421
 N2 0.918204 0.881365 0.8360  -0.0614259868421
 N1 0.440438 0.364934 0.76027  -0.336330986842
 N1 0.440454 0.864934 0.76027  -0.336330986842
 N1 0.940448 0.364928 0.76027  -0.336330986842
 N1 0.94045 0.864936 0.76027  -0.336330986842
 N1 0.132754 0.127855 0.73607  -0.336330986842
 N1 0.132768 0.627859 0.7360  -0.336330986842
 N1 0.63276 0.127856 0.73606  -0.336330986842
 N1 0.632765 0.627859 0.73607  -0.336330986842
 N2 0.097334 0.08146 0.66253  -0.0614259868421
 N2 0.097341 0.581462 0.6625  -0.0614259868421
 N2 0.597337 0.081459 0.66252  -0.0614259868421
 N2 0.597341 0.581463 0.66253  -0.0614259868421
 N2 0.085345 0.012361 0.66419  -0.0614259868421
 N2 0.085349 0.512362 0.66419  -0.0614259868421
 N2 0.58535 0.01236 0.66418  -0.0614259868421
 N2 0.585351 0.512363 0.66419  -0.0614259868421
 N1 0.112496 0.011834 0.73874  -0.336330986842
 N1 0.1125 0.511836 0.73874  -0.336330986842
 N1 0.612505 0.011836 0.73873  -0.336330986842
 N1 0.612502 0.511837 0.73874  -0.336330986842
 N1 0.483233 0.194052 0.23349  -0.336330986842
 N1 0.483249 0.69406 0.23348  -0.336330986842
 N1 0.983247 0.194053 0.23348  -0.336330986842
 N1 0.983253 0.694056 0.23348  -0.336330986842
 N2 0.481285 0.153159 0.15884  -0.0614259868421
 N2 0.481304 0.653169 0.1588  -0.0614259868421
 N2 0.9813 0.153162 0.15884  -0.0614259868421
 N2 0.981307 0.653165 0.15884  -0.0614259868421
 N2 0.035929 0.117032 0.16073  -0.0614259868421
 N2 0.035935 0.617035 0.1607  -0.0614259868421
 N2 0.535927 0.117029 0.16074  -0.0614259868421
 N2 0.53594 0.617035 0.16073  -0.0614259868421
 N1 0.074639 0.133592 0.23651  -0.336330986842
 N1 0.07465 0.6336 0.2365  -0.336330986842
 N1 0.574643 0.133597 0.23652  -0.336330986842
 N1 0.574652 0.633599 0.23651  -0.336330986842
 N1 0.004624 0.371023 0.26080  -0.336330986842
 N1 0.004621 0.87102 0.26080  -0.336330986842
 N1 0.504617 0.371018 0.26080  -0.336330986842
 N1 0.504633 0.871027 0.26079  -0.336330986842
 N2 0.015878 0.417359 0.33443  -0.0614259868421
 N2 0.015867 0.917358 0.33443  -0.0614259868421
 N2 0.515868 0.417355 0.33443  -0.0614259868421
 N2 0.515883 0.917362 0.33443  -0.0614259868421
 N2 0.0729 0.486512 0.33274  -0.0614259868421
 N2 0.072894 0.98651 0.33274  -0.0614259868421
 N2 0.572892 0.486508 0.33274  -0.0614259868421
 N2 0.572907 0.986515 0.33274  -0.0614259868421
 N1 0.100417 0.487125 0.25811  -0.336330986842
 N1 0.10041 0.987121 0.25810  -0.336330986842
 N1 0.60041 0.48712 0.2581  -0.336330986842
 N1 0.600424 0.987129 0.25810  -0.336330986842
 O1 0.256819 0.140609 0.34749  -0.609913486842
 O1 0.256835 0.640623 0.34749  -0.609913486842
 O1 0.756834 0.140618 0.34748  -0.609913486842
 O1 0.75683 0.640614 0.34749  -0.609913486842
 O1 0.341696 0.261695 0.33727  -0.609913486842
 O1 0.341721 0.761709 0.33727  -0.609913486842
 O1 0.841718 0.261704 0.33727  -0.609913486842
 O1 0.841713 0.761699 0.33727  -0.609913486842
 O1 0.23709 0.111944 0.148  -0.609913486842
 O1 0.237094 0.611954 0.14859  -0.609913486842
 O1 0.737082 0.111952 0.14859  -0.609913486842
 O1 0.737097 0.611948 0.148  -0.609913486842
 O1 0.333426 0.232669 0.14320  -0.609913486842
 O1 0.333439 0.732678 0.14320  -0.609913486842
 O1 0.833442 0.232674 0.143  -0.609913486842
 O1 0.833441 0.732672 0.14320  -0.609913486842
 O1 0.115414 0.358113 0.64926  -0.609913486842
 O1 0.11542 0.858119 0.64926  -0.609913486842
 O1 0.615416 0.358115 0.64926  -0.609913486842
 O1 0.615432 0.85812 0.64926  -0.609913486842
 O1 0.079351 0.237041 0.65940  -0.609913486842
 O1 0.07937 0.737049 0.65940  -0.609913486842
 O1 0.579356 0.237043 0.65940  -0.609913486842
 O1 0.579366 0.737049 0.65940  -0.609913486842
 O1 0.12492 0.387567 0.84822  -0.609913486842
 O1 0.124917 0.88757 0.84822  -0.609913486842
 O1 0.624913 0.387565 0.84822  -0.609913486842
 O1 0.624946 0.887573 0.84821  -0.609913486842
 O1 0.099964 0.266688 0.85338  -0.609913486842
 O1 0.099976 0.766692 0.85338  -0.609913486842
 O1 0.599972 0.266688 0.85338  -0.609913486842
 O1 0.599977 0.766693 0.8533  -0.609913486842
