#======================================================================

# CRYSTAL DATA

#----------------------------------------------------------------------

data_VESTA_phase_1


_pd_phase_name                         MOF
_cell_length_a                         23.22900
_cell_length_b                         23.23200
_cell_length_c                         26.04100
_cell_angle_alpha                      90.02600
_cell_angle_beta                       90.02600
_cell_angle_gamma                      89.98000
_symmetry_space_group_name_H-M         "P 1"
_symmetry_Int_Tables_number            1

loop_
_symmetry_equiv_pos_as_xyz
   "x, y, z"

loop_
   _atom_site_label
   _atom_site_fract_x
   _atom_site_fract_y
   _atom_site_fract_z
 _atom_site_charge
 Zn1 0.29991 0.299913 0.79165  0.870921061644
 Zn1 0.299908 0.799907 0.79165  0.870921061644
 Zn1 0.799902 0.299914 0.79165  0.870921061644
 Zn1 0.799902 0.799906 0.79165  0.870921061644
 Zn1 0.200097 0.200087 0.79160  0.870921061644
 Zn1 0.200094 0.70008 0.7916  0.870921061644
 Zn1 0.700089 0.200088 0.79161  0.870921061644
 Zn1 0.700088 0.700079 0.7916  0.870921061644
 Zn1 0.200092 0.29993 0.29162  0.870921061644
 Zn1 0.200089 0.799922 0.29162  0.870921061644
 Zn1 0.700084 0.29993 0.29162  0.870921061644
 Zn1 0.700083 0.799922 0.29162  0.870921061644
 Zn1 0.299925 0.200084 0.29162  0.870921061644
 Zn1 0.299923 0.700075 0.29162  0.870921061644
 Zn1 0.799917 0.200083 0.29162  0.870921061644
 Zn1 0.799916 0.700075 0.29162  0.870921061644
 Zn1 0.200073 0.299912 0.70839  0.870921061644
 Zn1 0.200072 0.799903 0.70839  0.870921061644
 Zn1 0.700066 0.299911 0.70839  0.870921061644
 Zn1 0.700065 0.799903 0.70839  0.870921061644
 Zn1 0.299907 0.200065 0.70838  0.870921061644
 Zn1 0.299905 0.700057 0.70839  0.870921061644
 Zn1 0.799899 0.200065 0.70839  0.870921061644
 Zn1 0.799898 0.700057 0.70839  0.870921061644
 Zn1 0.299902 0.299908 0.20840  0.870921061644
 Zn1 0.2999 0.7999 0.20840  0.870921061644
 Zn1 0.799895 0.299907 0.20840  0.870921061644
 Zn1 0.799893 0.7999 0.20840  0.870921061644
 Zn1 0.200087 0.20008 0.20835  0.870921061644
 Zn1 0.200087 0.700073 0.20835  0.870921061644
 Zn1 0.700081 0.200081 0.20835  0.870921061644
 Zn1 0.700079 0.700073 0.20835  0.870921061644
 H1 0.446201 0.368535 0.80866  0.122184633072
 H1 0.446201 0.868529 0.80867  0.122184633072
 H1 0.946195 0.368537 0.80866  0.122184633072
 H1 0.946192 0.868531 0.80866  0.122184633072
 H1 0.415874 0.321627 0.85527  0.122184633072
 H1 0.415873 0.821619 0.85527  0.122184633072
 H1 0.915869 0.321628 0.85527  0.122184633072
 H1 0.915866 0.821624 0.85527  0.122184633072
 H1 0.489917 0.315388 0.83801  0.122184633072
 H1 0.489916 0.815381 0.83801  0.122184633072
 H1 0.989911 0.31539 0.8380  0.122184633072
 H1 0.989909 0.815386 0.8380  0.122184633072
 H1 0.053844 0.131517 0.80858  0.122184633072
 H1 0.05384 0.631515 0.8085  0.122184633072
 H1 0.553835 0.131521 0.80859  0.122184633072
 H1 0.553832 0.631515 0.80858  0.122184633072
 H1 0.084192 0.178448 0.85522  0.122184633072
 H1 0.08419 0.678447 0.85522  0.122184633072
 H1 0.584186 0.178454 0.85522  0.122184633072
 H1 0.584182 0.678446 0.85522  0.122184633072
 H1 0.010139 0.184673 0.83793  0.122184633072
 H1 0.010136 0.684674 0.83793  0.122184633072
 H1 0.510132 0.184681 0.83794  0.122184633072
 H1 0.510128 0.684673 0.83793  0.122184633072
 H1 0.131448 0.446248 0.30863  0.122184633072
 H1 0.131454 0.946241 0.30865  0.122184633072
 H1 0.631441 0.446249 0.3086  0.122184633072
 H1 0.631442 0.94624 0.30864  0.122184633072
 H1 0.178402 0.415912 0.35525  0.122184633072
 H1 0.178413 0.915901 0.35526  0.122184633072
 H1 0.678396 0.415912 0.35525  0.122184633072
 H1 0.678398 0.915902 0.35526  0.122184633072
 H1 0.184598 0.489943 0.33799  0.122184633072
 H1 0.184609 0.989932 0.33801  0.122184633072
 H1 0.684593 0.489943 0.33800  0.122184633072
 H1 0.684594 0.989934 0.33800  0.122184633072
 H1 0.368528 0.053793 0.30867  0.122184633072
 H1 0.368527 0.553782 0.30867  0.122184633072
 H1 0.868521 0.053791 0.30867  0.122184633072
 H1 0.868517 0.553782 0.30868  0.122184633072
 H1 0.321593 0.084159 0.35528  0.122184633072
 H1 0.321592 0.584148 0.35528  0.122184633072
 H1 0.821585 0.084157 0.35528  0.122184633072
 H1 0.82158 0.584149 0.35528  0.122184633072
 H1 0.315386 0.010119 0.33799  0.122184633072
 H1 0.315383 0.510108 0.33799  0.122184633072
 H1 0.815377 0.010117 0.33799  0.122184633072
 H1 0.815371 0.510109 0.33799  0.122184633072
 H1 0.053754 0.368533 0.69139  0.122184633072
 H1 0.053752 0.868521 0.6913  0.122184633072
 H1 0.553745 0.368524 0.69138  0.122184633072
 H1 0.553746 0.868522 0.69138  0.122184633072
 H1 0.084089 0.321595 0.64476  0.122184633072
 H1 0.084091 0.82158 0.64476  0.122184633072
 H1 0.584085 0.321582 0.64476  0.122184633072
 H1 0.584086 0.821581 0.64476  0.122184633072
 H1 0.010048 0.315398 0.66202  0.122184633072
 H1 0.010049 0.815382 0.6620  0.122184633072
 H1 0.510043 0.315384 0.66201  0.122184633072
 H1 0.510043 0.815384 0.66201  0.122184633072
 H1 0.446198 0.131477 0.69135  0.122184633072
 H1 0.446197 0.631475 0.69135  0.122184633072
 H1 0.946188 0.131476 0.69136  0.122184633072
 H1 0.946188 0.63147 0.69136  0.122184633072
 H1 0.415831 0.178395 0.64474  0.122184633072
 H1 0.415828 0.678397 0.64473  0.122184633072
 H1 0.915822 0.178394 0.64474  0.122184633072
 H1 0.915823 0.678388 0.64474  0.122184633072
 H1 0.489883 0.184605 0.66202  0.122184633072
 H1 0.48988 0.684606 0.66202  0.122184633072
 H1 0.989874 0.184602 0.66203  0.122184633072
 H1 0.989874 0.684596 0.66203  0.122184633072
 H1 0.368489 0.446166 0.19140  0.122184633072
 H1 0.368479 0.946159 0.19140  0.122184633072
 H1 0.868481 0.446163 0.19141  0.122184633072
 H1 0.868476 0.946158 0.19140  0.122184633072
 H1 0.321543 0.415815 0.14478  0.122184633072
 H1 0.32153 0.915806 0.14478  0.122184633072
 H1 0.821535 0.415815 0.14478  0.122184633072
 H1 0.821528 0.915807 0.14478  0.122184633072
 H1 0.315315 0.489858 0.16206  0.122184633072
 H1 0.315301 0.989849 0.16206  0.122184633072
 H1 0.815309 0.489857 0.16207  0.122184633072
 H1 0.815301 0.989849 0.16206  0.122184633072
 H1 0.13144 0.053786 0.19133  0.122184633072
 H1 0.131444 0.55378 0.19132  0.122184633072
 H1 0.631435 0.053788 0.1913  0.122184633072
 H1 0.631437 0.553779 0.19132  0.122184633072
 H1 0.178362 0.084112 0.14473  0.122184633072
 H1 0.17837 0.58411 0.14473  0.122184633072
 H1 0.678359 0.084115 0.14473  0.122184633072
 H1 0.678363 0.584108 0.14473  0.122184633072
 H1 0.184601 0.01008 0.16199  0.122184633072
 H1 0.184608 0.510077 0.1619  0.122184633072
 H1 0.684597 0.010083 0.16199  0.122184633072
 H1 0.684602 0.510076 0.16199  0.122184633072
 H1 0.053796 0.131454 0.19135  0.122184633072
 H1 0.053795 0.631447 0.19135  0.122184633072
 H1 0.553789 0.131458 0.19134  0.122184633072
 H1 0.553788 0.631449 0.19134  0.122184633072
 H1 0.084121 0.17836 0.14474  0.122184633072
 H1 0.084121 0.678355 0.14474  0.122184633072
 H1 0.584116 0.178366 0.14474  0.122184633072
 H1 0.584116 0.678358 0.14474  0.122184633072
 H1 0.010078 0.184598 0.16200  0.122184633072
 H1 0.010078 0.684593 0.16200  0.122184633072
 H1 0.510073 0.184605 0.16200  0.122184633072
 H1 0.510073 0.684596 0.16200  0.122184633072
 H1 0.446158 0.368476 0.19142  0.122184633072
 H1 0.446154 0.868466 0.19142  0.122184633072
 H1 0.94615 0.36847 0.19142  0.122184633072
 H1 0.946148 0.868464 0.19142  0.122184633072
 H1 0.415809 0.321545 0.14479  0.122184633072
 H1 0.415804 0.821534 0.14479  0.122184633072
 H1 0.915797 0.321537 0.14478  0.122184633072
 H1 0.915798 0.821532 0.14479  0.122184633072
 H1 0.489862 0.315317 0.1620  0.122184633072
 H1 0.489858 0.815308 0.1620  0.122184633072
 H1 0.989851 0.31531 0.16207  0.122184633072
 H1 0.989852 0.815306 0.1620  0.122184633072
 H1 0.368546 0.053744 0.69136  0.122184633072
 H1 0.368546 0.553738 0.69137  0.122184633072
 H1 0.86853 0.053742 0.69136  0.122184633072
 H1 0.868534 0.553737 0.69136  0.122184633072
 H1 0.321588 0.084083 0.64475  0.122184633072
 H1 0.321589 0.584076 0.64475  0.122184633072
 H1 0.821569 0.084085 0.64475  0.122184633072
 H1 0.821576 0.584077 0.64475  0.122184633072
 H1 0.315391 0.010052 0.66200  0.122184633072
 H1 0.315393 0.510045 0.66201  0.122184633072
 H1 0.815371 0.010053 0.66200  0.122184633072
 H1 0.815379 0.510046 0.66200  0.122184633072
 H1 0.131468 0.446205 0.69133  0.122184633072
 H1 0.131468 0.946194 0.69133  0.122184633072
 H1 0.631458 0.446201 0.69134  0.122184633072
 H1 0.631458 0.946195 0.69134  0.122184633072
 H1 0.178403 0.41584 0.64473  0.122184633072
 H1 0.178404 0.915828 0.64473  0.122184633072
 H1 0.678391 0.415837 0.64473  0.122184633072
 H1 0.678393 0.915829 0.64473  0.122184633072
 H1 0.184612 0.48988 0.6620  0.122184633072
 H1 0.184611 0.989868 0.66201  0.122184633072
 H1 0.684599 0.489877 0.66202  0.122184633072
 H1 0.684601 0.98987 0.66202  0.122184633072
 H1 0.446243 0.131465 0.30862  0.122184633072
 H1 0.446242 0.631455 0.30862  0.122184633072
 H1 0.946239 0.131469 0.3086  0.122184633072
 H1 0.946235 0.631457 0.30862  0.122184633072
 H1 0.415905 0.178405 0.35525  0.122184633072
 H1 0.415905 0.678394 0.35525  0.122184633072
 H1 0.915899 0.178411 0.35525  0.122184633072
 H1 0.915896 0.678399 0.35525  0.122184633072
 H1 0.489947 0.184602 0.33799  0.122184633072
 H1 0.489947 0.684591 0.33799  0.122184633072
 H1 0.989941 0.184609 0.33799  0.122184633072
 H1 0.989938 0.684596 0.33799  0.122184633072
 H1 0.053803 0.368519 0.30865  0.122184633072
 H1 0.053799 0.868509 0.30865  0.122184633072
 H1 0.553793 0.368517 0.30865  0.122184633072
 H1 0.553791 0.868507 0.30865  0.122184633072
 H1 0.084168 0.321602 0.3552  0.122184633072
 H1 0.084165 0.821591 0.35527  0.122184633072
 H1 0.584161 0.321598 0.35527  0.122184633072
 H1 0.584157 0.821589 0.35527  0.122184633072
 H1 0.010116 0.315394 0.33798  0.122184633072
 H1 0.010114 0.815382 0.33798  0.122184633072
 H1 0.510109 0.315389 0.33798  0.122184633072
 H1 0.510106 0.81538 0.33798  0.122184633072
 H1 0.131514 0.05383 0.80860  0.122184633072
 H1 0.131509 0.553822 0.80860  0.122184633072
 H1 0.63151 0.053829 0.80862  0.122184633072
 H1 0.631504 0.553821 0.80861  0.122184633072
 H1 0.178461 0.084182 0.8552  0.122184633072
 H1 0.178456 0.584172 0.85523  0.122184633072
 H1 0.678461 0.084185 0.85523  0.122184633072
 H1 0.678453 0.584174 0.85523  0.122184633072
 H1 0.184689 0.010139 0.83794  0.122184633072
 H1 0.184683 0.51013 0.83794  0.122184633072
 H1 0.684689 0.010141 0.83795  0.122184633072
 H1 0.684681 0.510131 0.8379  0.122184633072
 H1 0.368555 0.446206 0.80868  0.122184633072
 H1 0.368554 0.946201 0.80868  0.122184633072
 H1 0.868549 0.446208 0.80868  0.122184633072
 H1 0.868544 0.946201 0.80868  0.122184633072
 H1 0.321631 0.415878 0.85527  0.122184633072
 H1 0.32163 0.915873 0.85527  0.122184633072
 H1 0.821627 0.415882 0.85527  0.122184633072
 H1 0.82162 0.915873 0.85528  0.122184633072
 H1 0.315393 0.48991 0.83802  0.122184633072
 H1 0.315391 0.989905 0.8380  0.122184633072
 H1 0.815389 0.489914 0.83801  0.122184633072
 H1 0.815381 0.989905 0.83802  0.122184633072
 H1 0.315248 0.315307 0.95186  0.122184633072
 H1 0.315276 0.815271 0.95187  0.122184633072
 H1 0.815273 0.315277 0.95187  0.122184633072
 H1 0.815264 0.815276 0.95187  0.122184633072
 H1 0.184716 0.184752 0.95174  0.122184633072
 H1 0.184744 0.684715 0.95174  0.122184633072
 H1 0.684739 0.184723 0.95174  0.122184633072
 H1 0.684731 0.684721 0.95174  0.122184633072
 H1 0.184685 0.315274 0.45179  0.122184633072
 H1 0.184716 0.815296 0.451  0.122184633072
 H1 0.684705 0.315299 0.451  0.122184633072
 H1 0.684703 0.815291 0.451  0.122184633072
 H1 0.315265 0.184676 0.45179  0.122184633072
 H1 0.315299 0.684701 0.45180  0.122184633072
 H1 0.815285 0.184701 0.45180  0.122184633072
 H1 0.815284 0.684694 0.451  0.122184633072
 H1 0.184683 0.315272 0.54821  0.122184633072
 H1 0.184711 0.815292 0.54821  0.122184633072
 H1 0.684697 0.315293 0.54821  0.122184633072
 H1 0.684704 0.815292 0.54821  0.122184633072
 H1 0.315263 0.184674 0.54821  0.122184633072
 H1 0.315294 0.684697 0.54821  0.122184633072
 H1 0.815277 0.184694 0.54821  0.122184633072
 H1 0.815285 0.684695 0.54821  0.122184633072
 H1 0.315236 0.315287 0.04826  0.122184633072
 H1 0.315255 0.815261 0.04827  0.122184633072
 H1 0.815254 0.315264 0.04827  0.122184633072
 H1 0.815254 0.815255 0.04827  0.122184633072
 H1 0.184704 0.184732 0.04814  0.122184633072
 H1 0.184723 0.684704 0.04814  0.122184633072
 H1 0.68472 0.18471 0.04814  0.122184633072
 H1 0.684721 0.6847 0.04814  0.122184633072
 C1 0.446516 0.324033 0.82320  -0.372211438356
 C1 0.446515 0.824026 0.82320  -0.372211438356
 C1 0.946511 0.324034 0.82320  -0.372211438356
 C1 0.946508 0.82403 0.82320  -0.372211438356
 C2 0.431515 0.281901 0.78207  0.241503561644
 C2 0.431513 0.781895 0.78207  0.241503561644
 C2 0.931508 0.281903 0.78207  0.241503561644
 C2 0.931506 0.781896 0.78207  0.241503561644
 C1 0.053533 0.176026 0.82313  -0.372211438356
 C1 0.05353 0.676024 0.82314  -0.372211438356
 C1 0.553525 0.17603 0.82314  -0.372211438356
 C1 0.553522 0.676024 0.82314  -0.372211438356
 C2 0.068506 0.218141 0.78203  0.241503561644
 C2 0.068504 0.718136 0.78203  0.241503561644
 C2 0.568499 0.218142 0.7820  0.241503561644
 C2 0.568497 0.718137 0.78203  0.241503561644
 C1 0.175966 0.446552 0.32318  -0.372211438356
 C1 0.175973 0.946542 0.32319  -0.372211438356
 C1 0.675959 0.446552 0.32318  -0.372211438356
 C1 0.67596 0.946543 0.32319  -0.372211438356
 C2 0.21809 0.431536 0.28207  0.241503561644
 C2 0.218091 0.931528 0.28208  0.241503561644
 C2 0.718082 0.431537 0.28207  0.241503561644
 C2 0.718081 0.931528 0.28207  0.241503561644
 C1 0.324015 0.053501 0.32320  -0.372211438356
 C1 0.324014 0.55349 0.323  -0.372211438356
 C1 0.824008 0.053499 0.32320  -0.372211438356
 C1 0.824003 0.553491 0.32320  -0.372211438356
 C2 0.281877 0.06849 0.28207  0.241503561644
 C2 0.281876 0.568481 0.2820  0.241503561644
 C2 0.781871 0.068489 0.28207  0.241503561644
 C2 0.781868 0.568481 0.28207  0.241503561644
 C1 0.053447 0.324027 0.67683  -0.372211438356
 C1 0.053447 0.824013 0.67683  -0.372211438356
 C1 0.553441 0.324016 0.67683  -0.372211438356
 C1 0.553441 0.824015 0.67683  -0.372211438356
 C2 0.068463 0.281902 0.7179  0.241503561644
 C2 0.068463 0.781893 0.7179  0.241503561644
 C2 0.568457 0.281897 0.71793  0.241503561644
 C2 0.568456 0.781894 0.71793  0.241503561644
 C1 0.446493 0.175978 0.67682  -0.372211438356
 C1 0.44649 0.675978 0.67681  -0.372211438356
 C1 0.946484 0.175977 0.67682  -0.372211438356
 C1 0.946484 0.675971 0.67682  -0.372211438356
 C2 0.431503 0.218116 0.71794  0.241503561644
 C2 0.431502 0.718113 0.71794  0.241503561644
 C2 0.931495 0.218117 0.71794  0.241503561644
 C2 0.931495 0.71811 0.71794  0.241503561644
 C1 0.323969 0.446472 0.17686  -0.372211438356
 C1 0.323958 0.946464 0.17686  -0.372211438356
 C1 0.823962 0.446471 0.17686  -0.372211438356
 C1 0.823956 0.946464 0.17686  -0.372211438356
 C2 0.281856 0.431496 0.21797  0.241503561644
 C2 0.281849 0.931488 0.21797  0.241503561644
 C2 0.781847 0.431495 0.21797  0.241503561644
 C2 0.781844 0.931488 0.21797  0.241503561644
 C1 0.175953 0.053473 0.17680  -0.372211438356
 C1 0.175958 0.553469 0.17680  -0.372211438356
 C1 0.675948 0.053476 0.17680  -0.372211438356
 C1 0.675952 0.553468 0.17680  -0.372211438356
 C2 0.218086 0.068478 0.21794  0.241503561644
 C2 0.218087 0.568471 0.21793  0.241503561644
 C2 0.71808 0.068479 0.21794  0.241503561644
 C2 0.718081 0.568471 0.2179  0.241503561644
 C1 0.05348 0.175955 0.17681  -0.372211438356
 C1 0.053479 0.675949 0.17681  -0.372211438356
 C1 0.553474 0.17596 0.17681  -0.372211438356
 C1 0.553473 0.675951 0.17681  -0.372211438356
 C2 0.068482 0.21809 0.21794  0.241503561644
 C2 0.068482 0.718083 0.21794  0.241503561644
 C2 0.568476 0.218092 0.21794  0.241503561644
 C2 0.568474 0.718083 0.21794  0.241503561644
 C1 0.446468 0.323967 0.17687  -0.372211438356
 C1 0.446464 0.823957 0.17687  -0.372211438356
 C1 0.946458 0.323961 0.1768  -0.372211438356
 C1 0.946458 0.823955 0.17687  -0.372211438356
 C2 0.431493 0.281853 0.21797  0.241503561644
 C2 0.43149 0.781844 0.21797  0.241503561644
 C2 0.931485 0.28185 0.21797  0.241503561644
 C2 0.931484 0.781842 0.2179  0.241503561644
 C1 0.324027 0.053442 0.67682  -0.372211438356
 C1 0.324027 0.553436 0.67682  -0.372211438356
 C1 0.824009 0.053443 0.67681  -0.372211438356
 C1 0.824015 0.553436 0.67682  -0.372211438356
 C2 0.281908 0.068458 0.71793  0.241503561644
 C2 0.281906 0.568451 0.7179  0.241503561644
 C2 0.781894 0.068458 0.71793  0.241503561644
 C2 0.781896 0.568451 0.71793  0.241503561644
 C1 0.175981 0.446497 0.67681  -0.372211438356
 C1 0.175981 0.946486 0.67681  -0.372211438356
 C1 0.67597 0.446495 0.67681  -0.372211438356
 C1 0.675971 0.946487 0.67681  -0.372211438356
 C2 0.218118 0.431507 0.71794  0.241503561644
 C2 0.218118 0.931498 0.71794  0.241503561644
 C2 0.718109 0.431505 0.71794  0.241503561644
 C2 0.718109 0.931497 0.71794  0.241503561644
 C1 0.446548 0.175972 0.32318  -0.372211438356
 C1 0.446548 0.675962 0.32318  -0.372211438356
 C1 0.946543 0.175977 0.32318  -0.372211438356
 C1 0.94654 0.675965 0.32318  -0.372211438356
 C2 0.431534 0.218094 0.28207  0.241503561644
 C2 0.431532 0.718085 0.28207  0.241503561644
 C2 0.931527 0.218095 0.28207  0.241503561644
 C2 0.931525 0.718085 0.28207  0.241503561644
 C1 0.053507 0.324018 0.32318  -0.372211438356
 C1 0.053504 0.824008 0.32319  -0.372211438356
 C1 0.553499 0.324015 0.32319  -0.372211438356
 C1 0.553496 0.824006 0.32319  -0.372211438356
 C2 0.068495 0.281878 0.28206  0.241503561644
 C2 0.068493 0.781869 0.28207  0.241503561644
 C2 0.568488 0.281877 0.28207  0.241503561644
 C2 0.568486 0.781868 0.2820  0.241503561644
 C1 0.176034 0.053525 0.82314  -0.372211438356
 C1 0.176029 0.553516 0.8231  -0.372211438356
 C1 0.676032 0.053525 0.8231  -0.372211438356
 C1 0.676025 0.553516 0.82315  -0.372211438356
 C2 0.218146 0.0685 0.78203  0.241503561644
 C2 0.218143 0.568492 0.78203  0.241503561644
 C2 0.718138 0.0685 0.78204  0.241503561644
 C2 0.718135 0.568491 0.78203  0.241503561644
 C1 0.324041 0.446518 0.82320  -0.372211438356
 C1 0.324041 0.946512 0.82320  -0.372211438356
 C1 0.824037 0.44652 0.82320  -0.372211438356
 C1 0.82403 0.946512 0.82321  -0.372211438356
 C2 0.281909 0.431516 0.78207  0.241503561644
 C2 0.281909 0.931509 0.78207  0.241503561644
 C2 0.781903 0.431517 0.78207  0.241503561644
 C2 0.781899 0.931509 0.78207  0.241503561644
 C3 0.286832 0.286877 0.97333  -0.0600664383562
 C3 0.286852 0.786848 0.97334  -0.0600664383562
 C3 0.78685 0.286854 0.97334  -0.0600664383562
 C3 0.786848 0.786846 0.97334  -0.0600664383562
 C3 0.213136 0.213167 0.9732  -0.0600664383562
 C3 0.213157 0.713138 0.97327  -0.0600664383562
 C3 0.713153 0.213145 0.97327  -0.0600664383562
 C3 0.713152 0.713137 0.97327  -0.0600664383562
 C3 0.213116 0.286844 0.47329  -0.0600664383562
 C3 0.213144 0.786863 0.47329  -0.0600664383562
 C3 0.713131 0.286865 0.47329  -0.0600664383562
 C3 0.713135 0.786861 0.47329  -0.0600664383562
 C3 0.286839 0.213111 0.47329  -0.0600664383562
 C3 0.286868 0.713132 0.47329  -0.0600664383562
 C3 0.786854 0.213131 0.47329  -0.0600664383562
 C3 0.786858 0.713129 0.47329  -0.0600664383562
 C3 0.213111 0.286839 0.52671  -0.0600664383562
 C3 0.213141 0.78686 0.52671  -0.0600664383562
 C3 0.713128 0.286862 0.52671  -0.0600664383562
 C3 0.71313 0.786857 0.52671  -0.0600664383562
 C3 0.286834 0.213106 0.52671  -0.0600664383562
 C3 0.286865 0.713129 0.52671  -0.0600664383562
 C3 0.786851 0.213129 0.52671  -0.0600664383562
 C3 0.786853 0.713124 0.52671  -0.0600664383562
 C3 0.286818 0.28687 0.02674  -0.0600664383562
 C3 0.286842 0.786837 0.02674  -0.0600664383562
 C3 0.786839 0.286843 0.02674  -0.0600664383562
 C3 0.786834 0.786839 0.02674  -0.0600664383562
 C3 0.213122 0.21316 0.02667  -0.0600664383562
 C3 0.213147 0.713127 0.02667  -0.0600664383562
 C3 0.713142 0.213134 0.02667  -0.0600664383562
 C3 0.713138 0.71313 0.02667  -0.0600664383562
 C4 0.468434 0.250024 0.74999  -0.174478105023
 C4 0.468433 0.750021 0.74999  -0.174478105023
 C4 0.968427 0.250025 0.74999  -0.174478105023
 C4 0.968426 0.750019 0.74999  -0.174478105023
 C4 0.03156 0.25003 0.74998  -0.174478105023
 C4 0.031558 0.750023 0.7499  -0.174478105023
 C4 0.531553 0.250027 0.7499  -0.174478105023
 C4 0.531551 0.750024 0.74998  -0.174478105023
 C4 0.249964 0.46844 0.25002  -0.174478105023
 C4 0.249962 0.968431 0.2500  -0.174478105023
 C4 0.749956 0.468439 0.25002  -0.174478105023
 C4 0.749954 0.968431 0.25002  -0.174478105023
 C4 0.249965 0.03156 0.25002  -0.174478105023
 C4 0.249967 0.531552 0.25001  -0.174478105023
 C4 0.749959 0.03156 0.25002  -0.174478105023
 C4 0.749959 0.531552 0.25001  -0.174478105023
 C4 0.031564 0.249968 0.25001  -0.174478105023
 C4 0.031562 0.74996 0.25002  -0.174478105023
 C4 0.531557 0.249969 0.2500  -0.174478105023
 C4 0.531555 0.74996 0.25001  -0.174478105023
 C4 0.468438 0.249966 0.25002  -0.174478105023
 C4 0.468436 0.749955 0.25002  -0.174478105023
 C4 0.968431 0.249965 0.25002  -0.174478105023
 C4 0.968429 0.749956 0.25002  -0.174478105023
 C4 0.250035 0.031555 0.74998  -0.174478105023
 C4 0.250032 0.531548 0.74998  -0.174478105023
 C4 0.750025 0.031556 0.74999  -0.174478105023
 C4 0.750024 0.531548 0.74998  -0.174478105023
 C4 0.25003 0.468435 0.74999  -0.174478105023
 C4 0.250031 0.968427 0.74999  -0.174478105023
 C4 0.750022 0.468435 0.74999  -0.174478105023
 C4 0.75002 0.968427 0.74999  -0.174478105023
 C5 0.249992 0.250018 0.88842  0.708723561644
 C5 0.25001 0.749993 0.88842  0.708723561644
 C5 0.750004 0.250002 0.88842  0.708723561644
 C5 0.749995 0.75 0.88842  0.708723561644
 C4 0.249979 0.250032 0.9460  -0.174478105023
 C4 0.250014 0.749989 0.94609  -0.174478105023
 C4 0.750008 0.249999 0.94609  -0.174478105023
 C4 0.749993 0.750004 0.94609  -0.174478105023
 C5 0.24999 0.24999 0.38841  0.708723561644
 C5 0.250006 0.749997 0.38841  0.708723561644
 C5 0.749998 0.250003 0.38841  0.708723561644
 C5 0.749993 0.749992 0.38841  0.708723561644
 C4 0.249973 0.249972 0.44608  -0.174478105023
 C4 0.250006 0.749997 0.44608  -0.174478105023
 C4 0.749995 0.25 0.44608  -0.174478105023
 C4 0.749988 0.749987 0.44608  -0.174478105023
 C5 0.249984 0.249984 0.61159  0.708723561644
 C5 0.249996 0.749988 0.61160  0.708723561644
 C5 0.749985 0.249991 0.61160  0.708723561644
 C5 0.749991 0.74999 0.61160  0.708723561644
 C4 0.249979 0.249979 0.5539  -0.174478105023
 C4 0.250003 0.749995 0.55393  -0.174478105023
 C4 0.749987 0.249993 0.55393  -0.174478105023
 C4 0.749999 0.749998 0.55393  -0.174478105023
 C5 0.249984 0.249997 0.11159  0.708723561644
 C5 0.249987 0.749985 0.11159  0.708723561644
 C5 0.749984 0.24999 0.11159  0.708723561644
 C5 0.749988 0.749978 0.11159  0.708723561644
 C4 0.249976 0.250003 0.05392  -0.174478105023
 C4 0.249985 0.749986 0.05392  -0.174478105023
 C4 0.749984 0.249989 0.05392  -0.174478105023
 C4 0.749992 0.749973 0.05392  -0.174478105023
 N1 0.376319 0.269623 0.76990  -0.328411438356
 N1 0.376317 0.769616 0.76991  -0.328411438356
 N1 0.876312 0.269622 0.76991  -0.328411438356
 N1 0.876311 0.769616 0.76991  -0.328411438356
 N1 0.12369 0.230385 0.7698  -0.328411438356
 N1 0.123688 0.730379 0.76986  -0.328411438356
 N1 0.623683 0.230386 0.76986  -0.328411438356
 N1 0.623681 0.730379 0.76986  -0.328411438356
 N1 0.230349 0.37634 0.26989  -0.328411438356
 N1 0.230351 0.876331 0.26990  -0.328411438356
 N1 0.730343 0.37634 0.269  -0.328411438356
 N1 0.730342 0.876331 0.26990  -0.328411438356
 N1 0.269647 0.123675 0.26986  -0.328411438356
 N1 0.269648 0.623666 0.26986  -0.328411438356
 N1 0.769642 0.123674 0.26986  -0.328411438356
 N1 0.769638 0.623666 0.2698  -0.328411438356
 N1 0.123667 0.269643 0.73011  -0.328411438356
 N1 0.123666 0.769635 0.73011  -0.328411438356
 N1 0.62366 0.26964 0.73011  -0.328411438356
 N1 0.623659 0.769635 0.73011  -0.328411438356
 N1 0.376312 0.23035 0.73014  -0.328411438356
 N1 0.376311 0.730345 0.73014  -0.328411438356
 N1 0.876305 0.230348 0.73014  -0.328411438356
 N1 0.876303 0.730342 0.73014  -0.328411438356
 N1 0.269615 0.376318 0.23015  -0.328411438356
 N1 0.269612 0.876309 0.23015  -0.328411438356
 N1 0.769609 0.376317 0.23015  -0.328411438356
 N1 0.769606 0.87631 0.23015  -0.328411438356
 N1 0.230365 0.123667 0.23010  -0.328411438356
 N1 0.230367 0.62366 0.23010  -0.328411438356
 N1 0.73036 0.123668 0.23010  -0.328411438356
 N1 0.730359 0.623661 0.23010  -0.328411438356
 N1 0.123678 0.23037 0.23010  -0.328411438356
 N1 0.123677 0.730362 0.23010  -0.328411438356
 N1 0.623672 0.230371 0.23010  -0.328411438356
 N1 0.62367 0.730363 0.23010  -0.328411438356
 N1 0.376309 0.26961 0.23015  -0.328411438356
 N1 0.376307 0.7696 0.23015  -0.328411438356
 N1 0.876301 0.269608 0.23015  -0.328411438356
 N1 0.876299 0.7696 0.23015  -0.328411438356
 N1 0.269648 0.123655 0.73011  -0.328411438356
 N1 0.269646 0.623648 0.73011  -0.328411438356
 N1 0.769637 0.123655 0.73011  -0.328411438356
 N1 0.769637 0.623648 0.73011  -0.328411438356
 N1 0.230349 0.376321 0.73014  -0.328411438356
 N1 0.23035 0.876312 0.73014  -0.328411438356
 N1 0.730341 0.37632 0.73014  -0.328411438356
 N1 0.730342 0.876312 0.73014  -0.328411438356
 N1 0.376331 0.230353 0.26989  -0.328411438356
 N1 0.376329 0.730343 0.26989  -0.328411438356
 N1 0.876324 0.230354 0.269  -0.328411438356
 N1 0.876322 0.730345 0.26990  -0.328411438356
 N1 0.123686 0.269645 0.26986  -0.328411438356
 N1 0.123684 0.769637 0.26986  -0.328411438356
 N1 0.623679 0.269644 0.2698  -0.328411438356
 N1 0.623677 0.769636 0.26986  -0.328411438356
 N1 0.230385 0.123677 0.76985  -0.328411438356
 N1 0.230381 0.62367 0.76986  -0.328411438356
 N1 0.730378 0.123678 0.76986  -0.328411438356
 N1 0.730375 0.623669 0.76986  -0.328411438356
 N1 0.26963 0.376326 0.76990  -0.328411438356
 N1 0.269631 0.876319 0.7699  -0.328411438356
 N1 0.769624 0.376327 0.7699  -0.328411438356
 N1 0.769623 0.876319 0.76991  -0.328411438356
 O1 0.284774 0.284774 0.86654  -0.596351438356
 O1 0.28477 0.784769 0.86654  -0.596351438356
 O1 0.784765 0.284777 0.86654  -0.596351438356
 O1 0.784766 0.784766 0.86654  -0.596351438356
 O1 0.215234 0.215223 0.86650  -0.596351438356
 O1 0.215231 0.715218 0.86651  -0.596351438356
 O1 0.715226 0.215226 0.86651  -0.596351438356
 O1 0.715226 0.715215 0.86651  -0.596351438356
 O1 0.215225 0.284794 0.36651  -0.596351438356
 O1 0.215222 0.784783 0.36652  -0.596351438356
 O1 0.715217 0.284792 0.3665  -0.596351438356
 O1 0.715217 0.784785 0.3665  -0.596351438356
 O1 0.284789 0.215218 0.36651  -0.596351438356
 O1 0.284787 0.715208 0.3665  -0.596351438356
 O1 0.78478 0.215216 0.3665  -0.596351438356
 O1 0.784781 0.71521 0.3665  -0.596351438356
 O1 0.215208 0.284778 0.63349  -0.596351438356
 O1 0.215208 0.78477 0.63349  -0.596351438356
 O1 0.715203 0.284779 0.63349  -0.596351438356
 O1 0.7152 0.784769 0.63349  -0.596351438356
 O1 0.284772 0.215203 0.63349  -0.596351438356
 O1 0.284772 0.715195 0.63349  -0.596351438356
 O1 0.784767 0.215203 0.63349  -0.596351438356
 O1 0.784764 0.715194 0.63349  -0.596351438356
 O1 0.284763 0.284771 0.13350  -0.596351438356
 O1 0.284765 0.784761 0.13350  -0.596351438356
 O1 0.784758 0.28477 0.13350  -0.596351438356
 O1 0.784755 0.784764 0.13350  -0.596351438356
 O1 0.215223 0.21522 0.13347  -0.596351438356
 O1 0.215225 0.71521 0.13347  -0.596351438356
 O1 0.715219 0.215218 0.13347  -0.596351438356
 O1 0.715215 0.715213 0.13347  -0.596351438356
 O2 0.249995 0.249993 0.75001  -0.976806438356
 O2 0.249994 0.749985 0.75001  -0.976806438356
 O2 0.749988 0.249993 0.75001  -0.976806438356
 O2 0.749987 0.749986 0.75001  -0.976806438356
 O2 0.250002 0.250001 0.24999  -0.976806438356
 O2 0.250001 0.749994 0.25000  -0.976806438356
 O2 0.749996 0.250002 0.25000  -0.976806438356
 O2 0.749994 0.749993 0.25000  -0.976806438356
