#======================================================================

# CRYSTAL DATA

#----------------------------------------------------------------------

data_VESTA_phase_1


_pd_phase_name                         MOF
_cell_length_a                         22.52500
_cell_length_b                         14.85900
_cell_length_c                         16.14300
_cell_angle_alpha                      89.98100
_cell_angle_beta                       90.92200
_cell_angle_gamma                      90.12700
_symmetry_space_group_name_H-M         "P 1"
_symmetry_Int_Tables_number            1

loop_
_symmetry_equiv_pos_as_xyz
   "x, y, z"

loop_
   _atom_site_label
   _atom_site_fract_x
   _atom_site_fract_y
   _atom_site_fract_z
 _atom_site_charge
 Zn1 0.497156 0.63368 0.97244  0.847579944444
 Zn1 0.997352 0.636147 0.97252  0.847579944444
 Zn1 0.247541 0.140375 0.60412  0.847579944444
 Zn1 0.747675 0.140398 0.60342  0.847579944444
 Zn1 0.002673 0.136251 0.02446  0.847579944444
 Zn1 0.502775 0.133205 0.02484  0.847579944444
 Zn1 0.252258 0.640351 0.3960  0.847579944444
 Zn1 0.752325 0.640344 0.39508  0.847579944444
 H1 0.339039 0.883904 0.94189  0.104385480159
 H1 0.837585 0.886356 0.94282  0.104385480159
 H1 0.28848 0.993439 0.84973  0.104385480159
 H1 0.787594 0.995365 0.84940  0.104385480159
 H1 0.357094 0.926402 0.57836  0.104385480159
 H1 0.856917 0.925353 0.57896  0.104385480159
 H1 0.415907 0.803311 0.51647  0.104385480159
 H1 0.915418 0.801075 0.51847  0.104385480159
 H1 0.46124 0.6857 0.60826  0.104385480159
 H1 0.960179 0.684093 0.61157  0.104385480159
 H1 0.448555 0.692082 0.75943  0.104385480159
 H1 0.947297 0.692316 0.76253  0.104385480159
 H1 0.184933 0.261971 0.83005  0.104385480159
 H1 0.687597 0.261499 0.83051  0.104385480159
 H1 0.14123 0.366152 0.9314  0.104385480159
 H1 0.64339 0.364478 0.93257  0.104385480159
 H1 0.058075 0.606989 0.76718  0.104385480159
 H1 0.558212 0.60475 0.76962  0.104385480159
 H1 0.053961 0.640815 0.6180  0.104385480159
 H1 0.553584 0.639322 0.62070  0.104385480159
 H1 0.093043 0.530315 0.51523  0.104385480159
 H1 0.59316 0.529966 0.51720  0.104385480159
 H1 0.138058 0.387692 0.56501  0.104385480159
 H1 0.639356 0.387852 0.56613  0.104385480159
 H1 0.283594 0.0 0.48409  0.104385480159
 H1 0.783863 0.0 0.48295  0.104385480159
 H1 0.241378 0.910769 0.37002  0.104385480159
 H1 0.741668 0.910558 0.36883  0.104385480159
 H1 0.068332 0.015777 0.42960  0.104385480159
 H1 0.568644 0.015877 0.42817  0.104385480159
 H1 0.118446 0.108706 0.54114  0.104385480159
 H1 0.618709 0.108532 0.53990  0.104385480159
 H1 0.15705 0.711928 0.19791  0.104385480159
 H1 0.656876 0.711717 0.19694  0.104385480159
 H1 0.113573 0.627649 0.07507  0.104385480159
 H1 0.613256 0.626822 0.07469  0.104385480159
 H1 0.472614 0.80528 0.05328  0.104385480159
 H1 0.97343 0.806967 0.05342  0.104385480159
 H1 0.0108 0.899534 0.17239  0.104385480159
 H1 0.510377 0.898893 0.1713  0.104385480159
 H1 0.210902 0.247537 0.45362  0.104385480159
 H1 0.711081 0.24669 0.45202  0.104385480159
 H1 0.256852 0.336679 0.33989  0.104385480159
 H1 0.756987 0.336059 0.33844  0.104385480159
 H1 0.427431 0.291987 0.45966  0.104385480159
 H1 0.927434 0.292835 0.45905  0.104385480159
 H1 0.37435 0.201936 0.56740  0.104385480159
 H1 0.874409 0.202491 0.56660  0.104385480159
 H1 0.340143 0.549513 0.19197  0.104385480159
 H1 0.84027 0.550044 0.19129  0.104385480159
 H1 0.381237 0.634533 0.06900  0.104385480159
 H1 0.881448 0.635591 0.0687  0.104385480159
 H1 0.028949 0.469818 0.05987  0.104385480159
 H1 0.528347 0.467941 0.05992  0.104385480159
 H1 0.493667 0.375381 0.17907  0.104385480159
 H1 0.994144 0.376571 0.17850  0.104385480159
 H1 0.162717 0.387012 0.05559  0.104385480159
 H1 0.660798 0.385126 0.05556  0.104385480159
 H1 0.212631 0.495907 0.14945  0.104385480159
 H1 0.711176 0.494731 0.14792  0.104385480159
 H1 0.142589 0.424939 0.4193  0.104385480159
 H1 0.642783 0.426007 0.41919  0.104385480159
 H1 0.083855 0.300243 0.47942  0.104385480159
 H1 0.58407 0.302194 0.48080  0.104385480159
 H1 0.039188 0.183296 0.38592  0.104385480159
 H1 0.538742 0.184573 0.38869  0.104385480159
 H1 0.052237 0.192123 0.23501  0.104385480159
 H1 0.551329 0.191703 0.23754  0.104385480159
 H1 0.312543 0.76108 0.16808  0.104385480159
 H1 0.814952 0.761362 0.16844  0.104385480159
 H1 0.357225 0.864076 0.06597  0.104385480159
 H1 0.858701 0.865477 0.0666  0.104385480159
 H1 0.441254 0.105787 0.22883  0.104385480159
 H1 0.942269 0.107124 0.23020  0.104385480159
 H1 0.445333 0.140754 0.37766  0.104385480159
 H1 0.946182 0.141508 0.37920  0.104385480159
 H1 0.405858 0.031042 0.48122  0.104385480159
 H1 0.906949 0.031173 0.48237  0.104385480159
 H1 0.360024 0.888309 0.43235  0.104385480159
 H1 0.861805 0.888184 0.43300  0.104385480159
 H1 0.216051 0.505649 0.51577  0.104385480159
 H1 0.716143 0.505715 0.51396  0.104385480159
 H1 0.258231 0.410057 0.62987  0.104385480159
 H1 0.758291 0.410004 0.62802  0.104385480159
 H1 0.431238 0.516884 0.57092  0.104385480159
 H1 0.931429 0.51592 0.56852  0.104385480159
 H1 0.381167 0.60945 0.45923  0.104385480159
 H1 0.881363 0.608862 0.45704  0.104385480159
 H1 0.342653 0.211648 0.80140  0.104385480159
 H1 0.842404 0.211936 0.80043  0.104385480159
 H1 0.386444 0.126042 0.92302  0.104385480159
 H1 0.88623 0.127364 0.92281  0.104385480159
 H1 0.026506 0.307404 0.94415  0.104385480159
 H1 0.527018 0.305394 0.94534  0.104385480159
 H1 0.489126 0.399725 0.82795  0.104385480159
 H1 0.98884 0.400224 0.82558  0.104385480159
 H1 0.288759 0.746949 0.54692  0.104385480159
 H1 0.788966 0.74765 0.54509  0.104385480159
 H1 0.242809 0.836407 0.66019  0.104385480159
 H1 0.743062 0.836996 0.65849  0.104385480159
 H1 0.07248 0.792513 0.53915  0.104385480159
 H1 0.572457 0.791005 0.53889  0.104385480159
 H1 0.125527 0.702064 0.43194  0.104385480159
 H1 0.625498 0.700824 0.43144  0.104385480159
 H1 0.159918 0.05007 0.80659  0.104385480159
 H1 0.66006 0.049353 0.80634  0.104385480159
 H1 0.118724 0.135963 0.92876  0.104385480159
 H1 0.618723 0.134445 0.92892  0.104385480159
 H1 0.471362 0.96731 0.93758  0.104385480159
 H1 0.971089 0.96947 0.93816  0.104385480159
 H1 0.00595 0.875775 0.82002  0.104385480159
 H1 0.506286 0.874626 0.81875  0.104385480159
 C1 0.412707 0.75409 0.90850  0.654019944444
 C1 0.911315 0.75601 0.91049  0.654019944444
 C2 0.384384 0.816037 0.845  0.0158407777778
 C2 0.883162 0.817569 0.8467  0.0158407777778
 C3 0.346632 0.881172 0.87569  -0.128074555556
 C3 0.845415 0.883036 0.87669  -0.128074555556
 C3 0.318664 0.94416 0.82366  -0.128074555556
 C3 0.817774 0.945681 0.82396  -0.128074555556
 C2 0.328868 0.945367 0.73928  0.0158407777778
 C2 0.828301 0.946064 0.73966  0.0158407777778
 C3 0.376912 0.874561 0.61742  -0.128074555556
 C3 0.876479 0.873786 0.61859  -0.128074555556
 C3 0.410313 0.806735 0.58335  -0.128074555556
 C3 0.909713 0.805297 0.58530  -0.128074555556
 C3 0.435768 0.740346 0.63522  -0.128074555556
 C3 0.934846 0.739261 0.63788  -0.128074555556
 C3 0.428397 0.743059 0.71982  -0.128074555556
 C3 0.927332 0.743011 0.72242  -0.128074555556
 C2 0.394386 0.812091 0.75745  0.0158407777778
 C2 0.893447 0.81272 0.75922  0.0158407777778
 C2 0.367166 0.879156 0.70412  0.0158407777778
 C2 0.866538 0.879355 0.70519  0.0158407777778
 C1 0.296129 0.015224 0.68931  0.654019944444
 C1 0.795894 0.015534 0.68892  0.654019944444
 C1 0.180713 0.26707 0.6669  0.654019944444
 C1 0.683046 0.267184 0.66773  0.654019944444
 C2 0.155164 0.336226 0.72388  0.0158407777778
 C2 0.657203 0.335884 0.72480  0.0158407777778
 C3 0.161316 0.321571 0.80831  -0.128074555556
 C3 0.663578 0.320891 0.80916  -0.128074555556
 C3 0.137266 0.381547 0.86578  -0.128074555556
 C3 0.639274 0.380215 0.86696  -0.128074555556
 C2 0.107357 0.458445 0.84057  0.0158407777778
 C2 0.608833 0.45676 0.84215  0.0158407777778
 C3 0.075848 0.559259 0.72307  -0.128074555556
 C3 0.576279 0.557568 0.72524  -0.128074555556
 C3 0.073026 0.57741 0.63933  -0.128074555556
 C3 0.573154 0.576127 0.64159  -0.128074555556
 C3 0.09535 0.515449 0.58142  -0.128074555556
 C3 0.59579 0.514824 0.58332  -0.128074555556
 C3 0.120864 0.436358 0.60876  -0.128074555556
 C3 0.621941 0.436015 0.61019  -0.128074555556
 C2 0.12553 0.41556 0.6945  0.0158407777778
 C2 0.626957 0.414861 0.69591  0.0158407777778
 C2 0.10185 0.478378 0.75374  0.0158407777778
 C2 0.602964 0.476986 0.75543  0.0158407777778
 C1 0.081289 0.515752 0.90794  0.654019944444
 C1 0.582714 0.513657 0.90978  0.654019944444
 C4 0.236122 0.0 0.47025  0.164751194444
 C4 0.736391 0.0 0.46907  0.164751194444
 C3 0.212734 0.953009 0.4070  -0.128074555556
 C3 0.713007 0.952851 0.40585  -0.128074555556
 C2 0.151154 0.955759 0.39038  0.0158407777778
 C2 0.651431 0.955672 0.38905  0.0158407777778
 C3 0.116117 0.011754 0.44027  -0.128074555556
 C3 0.616417 0.011748 0.43892  -0.128074555556
 C4 0.143266 0.06265 0.50231  0.164751194444
 C4 0.643568 0.062557 0.5010  0.164751194444
 C5 0.126609 0.904736 0.32423  -0.0346600555556
 C5 0.626801 0.904653 0.32292  -0.0346600555556
 C5 0.108448 0.861153 0.26507  -0.0346600555556
 C5 0.608359 0.8611 0.26389  -0.0346600555556
 C2 0.086816 0.81211 0.19570  0.0158407777778
 C2 0.586532 0.811748 0.1947  0.0158407777778
 C3 0.116426 0.734843 0.1670  -0.128074555556
 C3 0.616135 0.734421 0.16629  -0.128074555556
 C4 0.09294 0.688276 0.09951  0.164751194444
 C4 0.592537 0.687429 0.09904  0.164751194444
 C4 0.014353 0.789297 0.08644  0.164751194444
 C4 0.513726 0.78804 0.08606  0.164751194444
 C3 0.034749 0.839638 0.15335  -0.128074555556
 C3 0.534302 0.838864 0.15258  -0.128074555556
 C4 0.258763 0.258199 0.45205  0.164751194444
 C4 0.758914 0.257688 0.45067  0.164751194444
 C3 0.284235 0.308139 0.38936  -0.128074555556
 C3 0.784364 0.30777 0.38805  -0.128074555556
 C2 0.346319 0.320644 0.38990  0.0158407777778
 C2 0.846408 0.320791 0.38886  0.0158407777778
 C3 0.379462 0.283001 0.45605  -0.128074555556
 C3 0.879506 0.283444 0.45519  -0.128074555556
 C4 0.350304 0.233568 0.51602  0.164751194444
 C4 0.850369 0.233834 0.51507  0.164751194444
 C5 0.373294 0.368288 0.32461  -0.0346600555556
 C5 0.873406 0.368661 0.32371  -0.0346600555556
 C5 0.393139 0.408341 0.26525  -0.0346600555556
 C5 0.893355 0.4089 0.26451  -0.0346600555556
 C2 0.414191 0.456354 0.19583  0.0158407777778
 C2 0.914499 0.457201 0.19529  0.0158407777778
 C3 0.38176 0.52991 0.16356  -0.128074555556
 C3 0.88201 0.530714 0.16306  -0.128074555556
 C4 0.403891 0.576542 0.09618  0.164751194444
 C4 0.904195 0.577672 0.0959  0.164751194444
 C4 0.486493 0.482653 0.09018  0.164751194444
 C4 0.987005 0.484213 0.09002  0.164751194444
 C3 0.46754 0.432423 0.15720  -0.128074555556
 C3 0.967973 0.433645 0.15679  -0.128074555556
 C1 0.088703 0.256253 0.08727  0.654019944444
 C1 0.587298 0.254328 0.08865  0.654019944444
 C2 0.11674 0.317833 0.15129  0.0158407777778
 C2 0.61553 0.316392 0.15217  0.0158407777778
 C3 0.154677 0.383522 0.12167  -0.128074555556
 C3 0.653186 0.38202 0.12174  -0.128074555556
 C3 0.182277 0.446125 0.17466  -0.128074555556
 C3 0.68107 0.445103 0.17393  -0.128074555556
 C2 0.171575 0.446226 0.25892  0.0158407777778
 C2 0.670962 0.445836 0.25833  0.0158407777778
 C3 0.123048 0.373394 0.37958  -0.128074555556
 C3 0.623001 0.374131 0.38001  -0.128074555556
 C3 0.089686 0.304662 0.41262  -0.128074555556
 C3 0.589653 0.305893 0.41392  -0.128074555556
 C3 0.064586 0.238684 0.35980  -0.128074555556
 C3 0.564194 0.239519 0.36188  -0.128074555556
 C3 0.072206 0.242766 0.27529  -0.128074555556
 C3 0.571514 0.242657 0.27727  -0.128074555556
 C2 0.106254 0.31271 0.23875  0.0158407777778
 C2 0.605507 0.312083 0.23981  0.0158407777778
 C2 0.133149 0.379272 0.29303  0.0158407777778
 C2 0.632711 0.379157 0.29332  0.0158407777778
 C1 0.204075 0.515462 0.31007  0.654019944444
 C1 0.70392 0.515458 0.30855  0.654019944444
 C1 0.316851 0.767168 0.33103  0.654019944444
 C1 0.819248 0.767071 0.33159  0.654019944444
 C2 0.34268 0.835899 0.27375  0.0158407777778
 C2 0.844781 0.836135 0.27433  0.0158407777778
 C3 0.336509 0.820685 0.18940  -0.128074555556
 C3 0.838619 0.821149 0.1899  -0.128074555556
 C3 0.361051 0.880003 0.13157  -0.128074555556
 C3 0.862704 0.881075 0.13230  -0.128074555556
 C2 0.391414 0.956814 0.15640  0.0158407777778
 C2 0.892704 0.958186 0.15722  0.0158407777778
 C3 0.423197 0.058459 0.27321  -0.128074555556
 C3 0.924373 0.059487 0.27443  -0.128074555556
 C3 0.426018 0.077246 0.35682  -0.128074555556
 C3 0.927101 0.07794 0.35812  -0.128074555556
 C3 0.403413 0.015751 0.41512  -0.128074555556
 C3 0.904663 0.016086 0.41622  -0.128074555556
 C3 0.377488 0.936572 0.38829  -0.128074555556
 C3 0.879088 0.936773 0.38911  -0.128074555556
 C2 0.372749 0.915212 0.30260  0.0158407777778
 C2 0.874484 0.915689 0.3033  0.0158407777778
 C2 0.396839 0.97742 0.24308  0.0158407777778
 C2 0.898262 0.978402 0.24399  0.0158407777778
 C1 0.418211 0.013532 0.08902  0.654019944444
 C1 0.918689 0.015509 0.08959  0.654019944444
 C4 0.263504 0.505497 0.52977  0.164751194444
 C4 0.763604 0.505351 0.5278  0.164751194444
 C3 0.286875 0.45269 0.5929  -0.128074555556
 C3 0.78695 0.452469 0.59098  -0.128074555556
 C2 0.34843 0.456045 0.6098  0.0158407777778
 C2 0.848522 0.455593 0.60772  0.0158407777778
 C3 0.383475 0.51243 0.560  -0.128074555556
 C3 0.883639 0.511735 0.55785  -0.128074555556
 C4 0.356339 0.563174 0.49804  0.164751194444
 C4 0.856538 0.562622 0.49588  0.164751194444
 C5 0.372987 0.405153 0.67601  -0.0346600555556
 C5 0.872999 0.404751 0.67392  -0.0346600555556
 C5 0.391271 0.361605 0.73507  -0.0346600555556
 C5 0.891099 0.361337 0.73315  -0.0346600555556
 C2 0.413029 0.31209 0.80403  0.0158407777778
 C2 0.912774 0.312356 0.8024  0.0158407777778
 C3 0.383423 0.23437 0.83212  -0.128074555556
 C3 0.88315 0.234893 0.83106  -0.128074555556
 C4 0.407104 0.186997 0.89900  0.164751194444
 C4 0.906816 0.188181 0.89836  0.164751194444
 C4 0.485888 0.288126 0.91251  0.164751194444
 C4 0.985511 0.289608 0.91124  0.164751194444
 C3 0.465242 0.339347 0.8463  -0.128074555556
 C3 0.964947 0.340092 0.84460  -0.128074555556
 C4 0.24094 0.757805 0.54813  0.164751194444
 C4 0.741113 0.758085 0.54663  0.164751194444
 C3 0.215483 0.80793 0.61055  -0.128074555556
 C3 0.715676 0.808133 0.60911  -0.128074555556
 C2 0.153461 0.820709 0.6095  0.0158407777778
 C2 0.653602 0.82028 0.60850  0.0158407777778
 C3 0.120387 0.783232 0.54315  -0.128074555556
 C3 0.620418 0.782249 0.54250  -0.128074555556
 C4 0.149528 0.733579 0.48348  0.164751194444
 C4 0.64954 0.732751 0.48272  0.164751194444
 C5 0.126473 0.868461 0.67457  -0.0346600555556
 C5 0.626674 0.867945 0.67364  -0.0346600555556
 C5 0.106632 0.90858 0.73379  -0.0346600555556
 C5 0.606924 0.908004 0.73295  -0.0346600555556
 C2 0.085578 0.956891 0.80291  0.0158407777778
 C2 0.585851 0.955966 0.80225  0.0158407777778
 C3 0.118146 0.030687 0.83486  -0.128074555556
 C3 0.61833 0.029673 0.83456  -0.128074555556
 C4 0.095951 0.077844 0.90177  0.164751194444
 C4 0.596072 0.076331 0.90172  0.164751194444
 C4 0.013054 0.983931 0.90797  0.164751194444
 C4 0.513305 0.982088 0.90746  0.164751194444
 C3 0.032101 0.933138 0.8414  -0.128074555556
 C3 0.532389 0.931837 0.84066  -0.128074555556
 N1 0.202442 0.060421 0.51718  -0.338975055556
 N1 0.702724 0.060246 0.51600  -0.338975055556
 N1 0.042531 0.71464 0.05971  -0.338975055556
 N1 0.541928 0.713324 0.0594  -0.338975055556
 N1 0.290972 0.220498 0.51422  -0.338975055556
 N1 0.791085 0.220299 0.51304  -0.338975055556
 N1 0.455568 0.553853 0.05992  -0.338975055556
 N1 0.956027 0.55541 0.05981  -0.338975055556
 N1 0.297191 0.560415 0.48304  -0.338975055556
 N1 0.797354 0.560145 0.48110  -0.338975055556
 N1 0.457757 0.212931 0.93861  -0.338975055556
 N1 0.957385 0.214653 0.93786  -0.338975055556
 N1 0.208781 0.72018 0.48580  -0.338975055556
 N1 0.708864 0.719998 0.48463  -0.338975055556
 N1 0.044052 0.0555 0.93781  -0.338975055556
 N1 0.544239 0.05352 0.93769  -0.338975055556
 O1 0.463523 0.718677 0.88953  -0.572936055556
 O1 0.963061 0.723 0.89255  -0.572936055556
 O2 0.388067 0.741964 0.97654  -0.595956722222
 O2 0.885767 0.742171 0.9775  -0.595956722222
 O1 0.322787 0.059083 0.63160  -0.572936055556
 O1 0.822862 0.058977 0.63128  -0.572936055556
 O2 0.242428 0.030759 0.70625  -0.595956722222
 O2 0.742054 0.031129 0.70513  -0.595956722222
 O1 0.231482 0.234009 0.69025  -0.572936055556
 O1 0.733891 0.234308 0.69072  -0.572936055556
 O2 0.153926 0.242337 0.60164  -0.595956722222
 O2 0.656269 0.242132 0.60244  -0.595956722222
 O2 0.106514 0.520278 0.97733  -0.595956722222
 O2 0.608825 0.520034 0.97837  -0.595956722222
 O1 0.031132 0.554819 0.88921  -0.572936055556
 O1 0.531624 0.550396 0.89186  -0.572936055556
 O1 0.036767 0.223267 0.10464  -0.572936055556
 O1 0.53638 0.218856 0.10740  -0.572936055556
 O2 0.114564 0.242307 0.02053  -0.595956722222
 O2 0.612061 0.242184 0.02071  -0.595956722222
 O1 0.177146 0.558599 0.3678  -0.572936055556
 O1 0.677385 0.558916 0.36658  -0.572936055556
 O2 0.257972 0.531155 0.29406  -0.595956722222
 O2 0.757625 0.531055 0.29160  -0.595956722222
 O1 0.26579 0.734393 0.30863  -0.572936055556
 O1 0.768189 0.734239 0.3090  -0.572936055556
 O2 0.343846 0.742132 0.39610  -0.595956722222
 O2 0.846352 0.742212 0.3965  -0.595956722222
 O2 0.39296 0.0 0.01974  -0.595956722222
 O2 0.893252 0.0 0.02034  -0.595956722222
 O1 0.469035 0.050857 0.10763  -0.572936055556
 O1 0.968958 0.054738 0.10787  -0.572936055556
