#======================================================================

# CRYSTAL DATA

#----------------------------------------------------------------------

data_VESTA_phase_1


_pd_phase_name                         MOF
_cell_length_a                         23.61400
_cell_length_b                         15.14300
_cell_length_c                         15.15100
_cell_angle_alpha                      97.64900
_cell_angle_beta                       107.23200
_cell_angle_gamma                      107.12900
_symmetry_space_group_name_H-M         "P 1"
_symmetry_Int_Tables_number            1

loop_
_symmetry_equiv_pos_as_xyz
   "x, y, z"

loop_
   _atom_site_label
   _atom_site_fract_x
   _atom_site_fract_y
   _atom_site_fract_z
 _atom_site_charge
 Zn1 0.440786 0.802472 0.56346  0.831510714286
 Zn1 0.94079 0.802642 0.56365  0.831510714286
 Zn1 0.440378 0.5634 0.80207  0.831510714286
 Zn1 0.940659 0.563967 0.80251  0.831510714286
 Zn1 0.059178 0.436007 0.19703  0.831510714286
 Zn1 0.559736 0.436556 0.1983  0.831510714286
 Zn1 0.059263 0.197731 0.43629  0.831510714286
 Zn1 0.558966 0.196972 0.43643  0.831510714286
 H1 0.036685 0.72473 0.52214  0.109659714286
 H1 0.536866 0.724693 0.52234  0.109659714286
 H1 0.149777 0.782073 0.53800  0.109659714286
 H1 0.649933 0.782223 0.53811  0.109659714286
 H1 0.159878 0.066593 0.64861  0.109659714286
 H1 0.659823 0.066644 0.64861  0.109659714286
 H1 0.04435 0.996316 0.62641  0.109659714286
 H1 0.544337 0.996188 0.62653  0.109659714286
 H1 0.245313 0.836638 0.56267  0.109659714286
 H1 0.745524 0.836923 0.56307  0.109659714286
 H1 0.409671 0.087831 0.6492  0.109659714286
 H1 0.909719 0.088317 0.6494  0.109659714286
 H1 0.482248 0.390807 0.85129  0.109659714286
 H1 0.982346 0.391025 0.8513  0.109659714286
 H1 0.43969 0.213881 0.79365  0.109659714286
 H1 0.939707 0.214149 0.79355  0.109659714286
 H1 0.268823 0.237215 0.60832  0.109659714286
 H1 0.768815 0.237737 0.60858  0.109659714286
 H1 0.320099 0.414874 0.67158  0.109659714286
 H1 0.820136 0.415353 0.67208  0.109659714286
 H1 0.036456 0.522169 0.72474  0.109659714286
 H1 0.536443 0.522055 0.72439  0.109659714286
 H1 0.149573 0.537886 0.78211  0.109659714286
 H1 0.649566 0.537863 0.78190  0.109659714286
 H1 0.159924 0.648693 0.06661  0.109659714286
 H1 0.659701 0.648464 0.06632  0.109659714286
 H1 0.044354 0.626639 0.99629  0.109659714286
 H1 0.544132 0.626317 0.99588  0.109659714286
 H1 0.24514 0.562722 0.83661  0.109659714286
 H1 0.7453 0.563113 0.83661  0.109659714286
 H1 0.409739 0.649258 0.08775  0.109659714286
 H1 0.909715 0.649866 0.08806  0.109659714286
 H1 0.482565 0.851167 0.39075  0.109659714286
 H1 0.982303 0.851498 0.39079  0.109659714286
 H1 0.439885 0.793335 0.21385  0.109659714286
 H1 0.939566 0.793729 0.21390  0.109659714286
 H1 0.269066 0.60871 0.23722  0.109659714286
 H1 0.768931 0.608647 0.23739  0.109659714286
 H1 0.320445 0.672183 0.41487  0.109659714286
 H1 0.820359 0.672103 0.4150  0.109659714286
 H1 0.46351 0.477862 0.27589  0.109659714286
 H1 0.963434 0.477794 0.27491  0.109659714286
 H1 0.350391 0.462018 0.21819  0.109659714286
 H1 0.85031 0.462064 0.21768  0.109659714286
 H1 0.340485 0.351495 0.9338  0.109659714286
 H1 0.839805 0.35122 0.93310  0.109659714286
 H1 0.45605 0.373669 0.00453  0.109659714286
 H1 0.955382 0.373292 0.00327  0.109659714286
 H1 0.254699 0.436751 0.16337  0.109659714286
 H1 0.754694 0.437167 0.16326  0.109659714286
 H1 0.090397 0.350257 0.91179  0.109659714286
 H1 0.590009 0.350389 0.9122  0.109659714286
 H1 0.017756 0.148895 0.60909  0.109659714286
 H1 0.517243 0.148225 0.60923  0.109659714286
 H1 0.060546 0.206455 0.78600  0.109659714286
 H1 0.559903 0.206237 0.78611  0.109659714286
 H1 0.231219 0.391501 0.76256  0.109659714286
 H1 0.73063 0.391 0.76262  0.109659714286
 H1 0.179747 0.328233 0.58493  0.109659714286
 H1 0.679265 0.327355 0.58498  0.109659714286
 H1 0.463043 0.274927 0.47763  0.109659714286
 H1 0.963264 0.275481 0.47779  0.109659714286
 H1 0.349971 0.217568 0.46188  0.109659714286
 H1 0.850181 0.217976 0.4619  0.109659714286
 H1 0.339872 0.933047 0.35129  0.109659714286
 H1 0.840257 0.933559 0.3513  0.109659714286
 H1 0.455364 0.003322 0.37336  0.109659714286
 H1 0.955775 0.004004 0.37353  0.109659714286
 H1 0.254351 0.162976 0.43694  0.109659714286
 H1 0.754668 0.163315 0.43724  0.109659714286
 H1 0.090045 0.911708 0.35035  0.109659714286
 H1 0.590405 0.912011 0.35077  0.109659714286
 H1 0.017463 0.608969 0.14819  0.109659714286
 H1 0.517844 0.609008 0.14910  0.109659714286
 H1 0.060051 0.785828 0.2061  0.109659714286
 H1 0.560407 0.785954 0.20652  0.109659714286
 H1 0.230912 0.762182 0.3911  0.109659714286
 H1 0.73134 0.76278 0.39184  0.109659714286
 H1 0.179631 0.584577 0.32749  0.109659714286
 H1 0.680075 0.585106 0.3287  0.109659714286
 C1 0.065744 0.800123 0.54949  0.164701964286
 C1 0.565872 0.80011 0.54966  0.164701964286
 C2 0.129198 0.833102 0.55924  -0.175209285714
 C2 0.62932 0.833198 0.5593  -0.175209285714
 C3 0.165064 0.930709 0.59577  0.0545757142857
 C3 0.665128 0.930832 0.59584  0.0545757142857
 C2 0.133867 0.990536 0.62046  -0.175209285714
 C2 0.633871 0.990566 0.62053  -0.175209285714
 C1 0.07021 0.952192 0.60826  0.164701964286
 C1 0.570226 0.952116 0.60837  0.164701964286
 C4 0.233201 0.970955 0.60877  0.217850714286
 C4 0.733269 0.971197 0.60885  0.217850714286
 C2 0.266931 0.913614 0.58868  -0.175209285714
 C2 0.767083 0.913918 0.58894  -0.175209285714
 C3 0.330919 0.955633 0.60211  0.0545757142857
 C3 0.831068 0.956029 0.60238  0.0545757142857
 C2 0.35982 0.053823 0.63852  -0.175209285714
 C2 0.859872 0.054247 0.63866  -0.175209285714
 C4 0.323025 0.106386 0.65743  0.217850714286
 C4 0.823014 0.106746 0.65746  0.217850714286
 C1 0.43562 0.354194 0.79614  0.164701964286
 C1 0.935683 0.354498 0.79624  0.164701964286
 C2 0.411777 0.255667 0.76347  -0.175209285714
 C2 0.91179 0.255976 0.7634  -0.175209285714
 C3 0.350878 0.211096 0.69444  0.0545757142857
 C3 0.850862 0.211463 0.69451  0.0545757142857
 C2 0.316549 0.26888 0.66140  -0.175209285714
 C2 0.81655 0.269324 0.66165  -0.175209285714
 C1 0.344443 0.366994 0.69626  0.164701964286
 C1 0.844487 0.367435 0.69662  0.164701964286
 C5 0.367111 0.89498 0.577  0.578510714286
 C5 0.867409 0.895511 0.57802  0.578510714286
 C1 0.065571 0.549503 0.80013  0.164701964286
 C1 0.565511 0.549399 0.79980  0.164701964286
 C2 0.129044 0.559203 0.83313  -0.175209285714
 C2 0.628994 0.559124 0.83288  -0.175209285714
 C3 0.164983 0.595727 0.93074  0.0545757142857
 C3 0.664889 0.595647 0.9305  0.0545757142857
 C2 0.133847 0.620536 0.99055  -0.175209285714
 C2 0.63367 0.620332 0.99024  -0.175209285714
 C1 0.070165 0.608379 0.95219  0.164701964286
 C1 0.569988 0.608155 0.95180  0.164701964286
 C4 0.233157 0.608744 0.97096  0.217850714286
 C4 0.733086 0.608778 0.97087  0.217850714286
 C2 0.266831 0.588679 0.91359  -0.175209285714
 C2 0.7669 0.588964 0.91361  -0.175209285714
 C3 0.330859 0.602129 0.9555  0.0545757142857
 C3 0.830968 0.602687 0.95575  0.0545757142857
 C2 0.359857 0.638503 0.05378  -0.175209285714
 C2 0.859813 0.638919 0.05398  -0.175209285714
 C4 0.32312 0.657411 0.10637  0.217850714286
 C4 0.822949 0.657573 0.10646  0.217850714286
 C1 0.43591 0.796134 0.35416  0.164701964286
 C1 0.935672 0.796398 0.35423  0.164701964286
 C2 0.412001 0.763347 0.25564  -0.175209285714
 C2 0.911734 0.763626 0.25571  -0.175209285714
 C3 0.351073 0.694467 0.21108  0.0545757142857
 C3 0.850845 0.694633 0.21117  0.0545757142857
 C2 0.316801 0.661685 0.26888  -0.175209285714
 C2 0.816637 0.661714 0.26901  -0.175209285714
 C1 0.344755 0.696652 0.36699  0.164701964286
 C1 0.844619 0.696696 0.36712  0.164701964286
 C5 0.367016 0.577598 0.89490  0.578510714286
 C5 0.867359 0.578469 0.89532  0.578510714286
 C5 0.452425 0.725131 0.72500  0.578510714286
 C5 0.953004 0.725721 0.72545  0.578510714286
 C5 0.434107 0.639808 0.63963  0.578510714286
 C5 0.93455 0.6403 0.64011  0.578510714286
 C1 0.434496 0.450522 0.2004  0.164701964286
 C1 0.934284 0.450447 0.19953  0.164701964286
 C2 0.371011 0.44078 0.16727  -0.175209285714
 C2 0.870808 0.440741 0.16662  -0.175209285714
 C3 0.335175 0.404267 0.06962  0.0545757142857
 C3 0.834824 0.404199 0.0690  0.0545757142857
 C2 0.366461 0.379615 0.00998  -0.175209285714
 C2 0.86592 0.379389 0.00915  -0.175209285714
 C1 0.430142 0.391805 0.0485  0.164701964286
 C1 0.929607 0.391555 0.04743  0.164701964286
 C4 0.266983 0.391154 0.02915  0.217850714286
 C4 0.766638 0.391139 0.02887  0.217850714286
 C2 0.233136 0.410953 0.08636  -0.175209285714
 C2 0.732981 0.411182 0.08628  -0.175209285714
 C3 0.169085 0.397298 0.04417  0.0545757142857
 C3 0.668934 0.397648 0.04434  0.0545757142857
 C2 0.140284 0.361142 0.9459  -0.175209285714
 C2 0.639906 0.36122 0.94614  -0.175209285714
 C4 0.177175 0.342485 0.89350  0.217850714286
 C4 0.676629 0.342342 0.89351  0.217850714286
 C1 0.06441 0.20393 0.64567  0.164701964286
 C1 0.563871 0.203335 0.64579  0.164701964286
 C2 0.088379 0.236586 0.74420  -0.175209285714
 C2 0.587767 0.236228 0.74430  -0.175209285714
 C3 0.149292 0.305514 0.78877  0.0545757142857
 C3 0.648664 0.305196 0.78881  0.0545757142857
 C2 0.183498 0.338472 0.73094  -0.175209285714
 C2 0.682913 0.337972 0.7309  -0.175209285714
 C1 0.155486 0.3036 0.63282  0.164701964286
 C1 0.654974 0.302901 0.63289  0.164701964286
 C5 0.132685 0.42155 0.10457  0.578510714286
 C5 0.63278 0.422155 0.10503  0.578510714286
 C1 0.433984 0.199534 0.45029  0.164701964286
 C1 0.934247 0.200071 0.45044  0.164701964286
 C2 0.370543 0.166539 0.44062  -0.175209285714
 C2 0.870797 0.167 0.44071  -0.175209285714
 C3 0.334675 0.068931 0.404  0.0545757142857
 C3 0.83498 0.069376 0.40418  0.0545757142857
 C2 0.365877 0.009107 0.37941  -0.175209285714
 C2 0.866226 0.009627 0.37949  -0.175209285714
 C1 0.429518 0.047466 0.39152  0.164701964286
 C1 0.929877 0.048061 0.39168  0.164701964286
 C4 0.266533 0.028658 0.39108  0.217850714286
 C4 0.76685 0.029042 0.39120  0.217850714286
 C2 0.23276 0.085986 0.41105  -0.175209285714
 C2 0.733085 0.086333 0.41127  -0.175209285714
 C3 0.168748 0.043942 0.39747  0.0545757142857
 C3 0.669105 0.044265 0.39786  0.0545757142857
 C2 0.139908 0.945726 0.36120  -0.175209285714
 C2 0.640248 0.946063 0.36151  -0.175209285714
 C4 0.176732 0.893179 0.34237  0.217850714286
 C4 0.677077 0.893547 0.34263  0.217850714286
 C1 0.064108 0.645479 0.20333  0.164701964286
 C1 0.564491 0.645666 0.20418  0.164701964286
 C2 0.087961 0.743986 0.23622  -0.175209285714
 C2 0.588337 0.744202 0.23674  -0.175209285714
 C3 0.148877 0.788476 0.30523  0.0545757142857
 C3 0.649254 0.788826 0.30571  0.0545757142857
 C2 0.183184 0.730604 0.33808  -0.175209285714
 C2 0.683604 0.73108 0.33879  -0.175209285714
 C1 0.155286 0.632509 0.30298  0.164701964286
 C1 0.65571 0.632953 0.30403  0.164701964286
 C5 0.13244 0.104503 0.42187  0.578510714286
 C5 0.632902 0.104895 0.42248  0.578510714286
 C5 0.046956 0.274415 0.27434  0.578510714286
 C5 0.547527 0.274637 0.27512  0.578510714286
 C5 0.065387 0.359915 0.35958  0.578510714286
 C5 0.565789 0.359836 0.36058  0.578510714286
 N1 0.036187 0.858388 0.57327  -0.312856785714
 N1 0.536258 0.858282 0.57345  -0.312856785714
 N2 0.260866 0.066325 0.64135  -0.388329285714
 N2 0.760851 0.066592 0.64134  -0.388329285714
 N1 0.403012 0.409614 0.76288  -0.312856785714
 N1 0.903087 0.410003 0.76317  -0.312856785714
 N1 0.036075 0.573396 0.85838  -0.312856785714
 N1 0.535938 0.573203 0.85797  -0.312856785714
 N2 0.260925 0.641312 0.06634  -0.388329285714
 N2 0.760732 0.641255 0.06628  -0.388329285714
 N1 0.403341 0.763149 0.40959  -0.312856785714
 N1 0.903179 0.763269 0.40971  -0.312856785714
 N1 0.464136 0.426757 0.14238  -0.312856785714
 N1 0.96374 0.426541 0.14123  -0.312856785714
 N2 0.239381 0.358743 0.93373  -0.388329285714
 N2 0.738839 0.358529 0.9335  -0.388329285714
 N1 0.096899 0.237104 0.59020  -0.312856785714
 N1 0.596421 0.236309 0.59032  -0.312856785714
 N1 0.463541 0.141276 0.42648  -0.312856785714
 N1 0.963853 0.141881 0.4266  -0.312856785714
 N2 0.238907 0.933277 0.35855  -0.388329285714
 N2 0.739229 0.93366 0.35868  -0.388329285714
 N1 0.096705 0.589966 0.2363  -0.312856785714
 N1 0.597116 0.590283 0.23749  -0.312856785714
 O1 0.338831 0.805738 0.54971  -0.570549285714
 O1 0.839278 0.806202 0.55050  -0.570549285714
 O2 0.424915 0.936756 0.58668  -0.569172619048
 O2 0.925158 0.937389 0.58709  -0.569172619048
 O2 0.459889 0.806442 0.7075  -0.569172619048
 O2 0.960451 0.806992 0.70785  -0.569172619048
 O2 0.427943 0.657448 0.55837  -0.569172619048
 O2 0.928236 0.657812 0.55877  -0.569172619048
 O1 0.338667 0.549901 0.80563  -0.570549285714
 O1 0.839222 0.550973 0.80600  -0.570549285714
 O2 0.424846 0.586747 0.93664  -0.569172619048
 O2 0.925157 0.587634 0.93729  -0.569172619048
 O2 0.459638 0.707503 0.80620  -0.569172619048
 O2 0.960358 0.708178 0.80671  -0.569172619048
 O2 0.42766 0.558413 0.65711  -0.569172619048
 O2 0.928154 0.55895 0.65768  -0.569172619048
 O1 0.160809 0.449083 0.1938  -0.570549285714
 O1 0.66115 0.449833 0.19431  -0.570549285714
 O2 0.074881 0.41237 0.06257  -0.569172619048
 O2 0.574961 0.413032 0.06334  -0.569172619048
 O2 0.039554 0.291846 0.19303  -0.569172619048
 O2 0.540352 0.292409 0.19398  -0.569172619048
 O2 0.071711 0.441194 0.34186  -0.569172619048
 O2 0.57239 0.441332 0.34330  -0.569172619048
 O1 0.160605 0.193814 0.4493  -0.570549285714
 O1 0.661177 0.194121 0.45034  -0.570549285714
 O2 0.074695 0.062685 0.41282  -0.569172619048
 O2 0.575079 0.063078 0.4132  -0.569172619048
 O2 0.039561 0.193197 0.29205  -0.569172619048
 O2 0.539979 0.193253 0.29246  -0.569172619048
 O2 0.071771 0.342549 0.44099  -0.569172619048
 O2 0.571843 0.342018 0.44175  -0.569172619048
