#======================================================================

# CRYSTAL DATA

#----------------------------------------------------------------------

data_VESTA_phase_1


_pd_phase_name                         MOF
_cell_length_a                         14.71500
_cell_length_b                         15.75400
_cell_length_c                         16.95400
_cell_angle_alpha                      90.00400
_cell_angle_beta                       90.03400
_cell_angle_gamma                      90.00900
_symmetry_space_group_name_H-M         "P 1"
_symmetry_Int_Tables_number            1

loop_
_symmetry_equiv_pos_as_xyz
   "x, y, z"

loop_
   _atom_site_label
   _atom_site_fract_x
   _atom_site_fract_y
   _atom_site_fract_z
 _atom_site_charge
 Zn1 0.655782 0.478034 0.20982  0.877492209302
 Zn1 0.913577 0.973804 0.26286  0.877492209302
 Zn1 0.15575 0.021987 0.79017  0.877492209302
 Zn1 0.413523 0.526243 0.73705  0.877492209302
 Zn1 0.844279 0.522015 0.70977  0.877492209302
 Zn1 0.586525 0.026268 0.76289  0.877492209302
 Zn1 0.34427 0.978041 0.2901  0.877492209302
 Zn1 0.086458 0.473807 0.23710  0.877492209302
 H1 0.738424 0.711552 0.3976  0.111454709302
 H1 0.799641 0.713635 0.22420  0.111454709302
 H1 0.542582 0.514582 0.96935  0.111454709302
 H1 0.56744 0.326059 0.9274  0.111454709302
 H1 0.764997 0.322738 0.13547  0.111454709302
 H1 0.911173 0.248071 0.21739  0.111454709302
 H1 0.800102 0.44951 0.35251  0.111454709302
 H1 0.0 0.299176 0.33580  0.111454709302
 H1 0.960525 0.385769 0.39066  0.111454709302
 H1 0.904278 0.359261 0.52130  0.111454709302
 H1 0.866495 0.259166 0.62655  0.111454709302
 H1 0.865311 0.053886 0.45818  0.111454709302
 H1 0.901836 0.155427 0.35157  0.111454709302
 H1 0.839547 0.021058 0.5907  0.111454709302
 H1 0.775035 0.098698 0.64121  0.111454709302
 H1 0.0 0.151328 0.84301  0.111454709302
 H1 0.845582 0.178679 0.75705  0.111454709302
 H1 0.011692 0.999721 0.63787  0.111454709302
 H1 0.973404 0.8874 0.42903  0.111454709302
 H1 0.118393 0.956558 0.51565  0.111454709302
 H1 0.072959 0.101899 0.30816  0.111454709302
 H1 0.240804 0.067913 0.47281  0.111454709302
 H1 0.22088 0.128381 0.38762  0.111454709302
 H1 0.145132 0.101939 0.59822  0.111454709302
 H1 0.099017 0.22083 0.68335  0.111454709302
 H1 0.117081 0.391439 0.48495  0.111454709302
 H1 0.159949 0.271883 0.39934  0.111454709302
 H1 0.024315 0.374008 0.68193  0.111454709302
 H1 0.064284 0.44547 0.60986  0.111454709302
 H1 0.305479 0.387772 0.83952  0.111454709302
 H1 0.138511 0.323244 0.79227  0.111454709302
 H1 0.228865 0.507567 0.6272  0.111454709302
 H1 0.238564 0.788877 0.6021  0.111454709302
 H1 0.299413 0.786287 0.7757  0.111454709302
 H1 0.042397 0.985414 0.03048  0.111454709302
 H1 0.067641 0.173872 0.07255  0.111454709302
 H1 0.265012 0.177393 0.8644  0.111454709302
 H1 0.411155 0.252018 0.78261  0.111454709302
 H1 0.299936 0.050483 0.64754  0.111454709302
 H1 0.500097 0.200782 0.66426  0.111454709302
 H1 0.460307 0.114189 0.60942  0.111454709302
 H1 0.404471 0.140748 0.47864  0.111454709302
 H1 0.366882 0.240839 0.37331  0.111454709302
 H1 0.365112 0.44605 0.54175  0.111454709302
 H1 0.401463 0.344514 0.64843  0.111454709302
 H1 0.339794 0.478934 0.40911  0.111454709302
 H1 0.27518 0.401349 0.35862  0.111454709302
 H1 0.504223 0.348664 0.1569  0.111454709302
 H1 0.345668 0.32124 0.24287  0.111454709302
 H1 0.511859 0.500351 0.36204  0.111454709302
 H1 0.473336 0.61272 0.57095  0.111454709302
 H1 0.61822 0.543526 0.48438  0.111454709302
 H1 0.572746 0.398087 0.69176  0.111454709302
 H1 0.740596 0.43217 0.52731  0.111454709302
 H1 0.720645 0.371665 0.6124  0.111454709302
 H1 0.645262 0.398075 0.40170  0.111454709302
 H1 0.599349 0.279164 0.31645  0.111454709302
 H1 0.616896 0.108591 0.51493  0.111454709302
 H1 0.659572 0.228164 0.60064  0.111454709302
 H1 0.52443 0.125937 0.31782  0.111454709302
 H1 0.564484 0.0545 0.38991  0.111454709302
 H1 0.805511 0.112372 0.16040  0.111454709302
 H1 0.638606 0.17688 0.207  0.111454709302
 H1 0.729004 0.992445 0.37257  0.111454709302
 H1 0.761603 0.288952 0.89780  0.111454709302
 H1 0.700585 0.286359 0.72423  0.111454709302
 H1 0.957666 0.485433 0.46950  0.111454709302
 H1 0.932436 0.673866 0.4274  0.111454709302
 H1 0.735006 0.677389 0.63539  0.111454709302
 H1 0.588859 0.751986 0.71726  0.111454709302
 H1 0.700145 0.550572 0.85238  0.111454709302
 H1 0.499949 0.70077 0.83565  0.111454709302
 H1 0.539744 0.614182 0.89047  0.111454709302
 H1 0.595598 0.640743 0.0212  0.111454709302
 H1 0.633228 0.740828 0.12662  0.111454709302
 H1 0.634915 0.946067 0.95822  0.111454709302
 H1 0.598565 0.84453 0.85151  0.111454709302
 H1 0.660315 0.978933 0.09089  0.111454709302
 H1 0.724893 0.901337 0.14137  0.111454709302
 H1 0.495806 0.848681 0.34303  0.111454709302
 H1 0.654367 0.821261 0.25713  0.111454709302
 H1 0.488243 0.0 0.13792  0.111454709302
 H1 0.52673 0.112718 0.9289  0.111454709302
 H1 0.381811 0.043535 0.01556  0.111454709302
 H1 0.427272 0.898065 0.80814  0.111454709302
 H1 0.259429 0.932123 0.97259  0.111454709302
 H1 0.279384 0.87161 0.88745  0.111454709302
 H1 0.354747 0.898077 0.09824  0.111454709302
 H1 0.400668 0.779194 0.18349  0.111454709302
 H1 0.383177 0.60859 0.98497  0.111454709302
 H1 0.3405 0.728135 0.89926  0.111454709302
 H1 0.475613 0.62599 0.18211  0.111454709302
 H1 0.435545 0.554528 0.1100  0.111454709302
 H1 0.194546 0.612385 0.33956  0.111454709302
 H1 0.361458 0.676916 0.29236  0.111454709302
 H1 0.271011 0.492464 0.1273  0.111454709302
 H1 0.261872 0.211735 0.10239  0.111454709302
 H1 0.200136 0.213554 0.27571  0.111454709302
 H1 0.457484 0.014616 0.53059  0.111454709302
 H1 0.432673 0.826049 0.57239  0.111454709302
 H1 0.235022 0.822782 0.36446  0.111454709302
 H1 0.088777 0.748123 0.28259  0.111454709302
 H1 0.199927 0.949507 0.14742  0.111454709302
 H1 0.999798 0.799165 0.16414  0.111454709302
 H1 0.039464 0.885771 0.10930  0.111454709302
 H1 0.095687 0.859263 0.97861  0.111454709302
 H1 0.133517 0.759174 0.87336  0.111454709302
 H1 0.134717 0.553922 0.04175  0.111454709302
 H1 0.098225 0.655465 0.14838  0.111454709302
 H1 0.160527 0.521089 0.9091  0.111454709302
 H1 0.225034 0.598773 0.85872  0.111454709302
 H1 0.995877 0.651361 0.65689  0.111454709302
 H1 0.15454 0.678681 0.74285  0.111454709302
 H1 0.988355 0.499755 0.86202  0.111454709302
 H1 0.026587 0.387416 0.07091  0.111454709302
 H1 0.881648 0.456609 0.98424  0.111454709302
 H1 0.927116 0.601914 0.19180  0.111454709302
 H1 0.759242 0.567897 0.02717  0.111454709302
 H1 0.779204 0.628377 0.11236  0.111454709302
 H1 0.854881 0.601935 0.90171  0.111454709302
 H1 0.900971 0.720831 0.81657  0.111454709302
 H1 0.88295 0.891462 0.01501  0.111454709302
 H1 0.840103 0.771902 0.10062  0.111454709302
 H1 0.975692 0.874016 0.81800  0.111454709302
 H1 0.935747 0.94548 0.89007  0.111454709302
 H1 0.69453 0.887803 0.66041  0.111454709302
 H1 0.86145 0.823228 0.7076  0.111454709302
 H1 0.771219 0.0 0.87269  0.111454709302
 C1 0.700601 0.609253 0.31390  0.664379709302
 C2 0.744665 0.691103 0.33640  -0.136469040698
 C2 0.792918 0.736914 0.28445  -0.136469040698
 C1 0.835142 0.820998 0.30136  0.664379709302
 C1 0.609872 0.429095 0.05391  0.664379709302
 C2 0.564056 0.448985 0.97762  -0.136469040698
 C2 0.546303 0.392053 0.92088  -0.136469040698
 C1 0.499287 0.414999 0.8458  0.664379709302
 C3 0.794736 0.336843 0.19250  -0.0579365406977
 C3 0.865459 0.299779 0.2322  -0.0579365406977
 C4 0.809174 0.404709 0.30468  0.146464709302
 C5 0.939835 0.324713 0.36553  -0.0746490406977
 C6 0.906876 0.264395 0.42867  0.0208897093023
 C2 0.895613 0.292351 0.50647  -0.136469040698
 C2 0.874157 0.235343 0.56648  -0.136469040698
 C6 0.863646 0.148861 0.54998  0.0208897093023
 C2 0.872591 0.121175 0.47194  -0.136469040698
 C2 0.893578 0.178312 0.41181  -0.136469040698
 C5 0.84177 0.085822 0.6145  -0.0746490406977
 C3 0.981265 0.12383 0.78785  -0.0579365406977
 C3 0.903281 0.137919 0.74571  -0.0579365406977
 C4 0.988295 0.043842 0.68248  0.146464709302
 C3 0.016014 0.942168 0.41776  -0.0579365406977
 C3 0.086042 0.976146 0.46094  -0.0579365406977
 C4 0.065587 0.05282 0.35250  0.146464709302
 C5 0.188957 0.105376 0.44203  -0.0746490406977
 C6 0.156493 0.178237 0.49281  0.0208897093023
 C2 0.138339 0.165283 0.57303  -0.136469040698
 C2 0.112842 0.232761 0.6211  -0.136469040698
 C6 0.106089 0.315125 0.59055  0.0208897093023
 C2 0.123118 0.327967 0.51033  -0.136469040698
 C2 0.147421 0.260071 0.46181  -0.136469040698
 C5 0.08264 0.388831 0.64393  -0.0746490406977
 C3 0.264319 0.403079 0.78853  -0.0579365406977
 C3 0.181789 0.371009 0.76588  -0.0579365406977
 C4 0.227976 0.465835 0.67803  0.146464709302
 C1 0.200612 0.890907 0.68610  0.664379709302
 C2 0.244744 0.809139 0.66351  -0.136469040698
 C2 0.292858 0.763157 0.71547  -0.136469040698
 C1 0.335051 0.679064 0.69857  0.664379709302
 C1 0.109844 0.070899 0.94605  0.664379709302
 C2 0.064004 0.051003 0.02229  -0.136469040698
 C2 0.046352 0.107909 0.07906  -0.136469040698
 C1 0.999358 0.084999 0.15407  0.664379709302
 C3 0.294709 0.163253 0.80748  -0.0579365406977
 C3 0.365407 0.200306 0.76774  -0.0579365406977
 C4 0.309057 0.095314 0.69534  0.146464709302
 C5 0.439686 0.175266 0.63452  -0.0746490406977
 C6 0.406782 0.235575 0.57131  0.0208897093023
 C2 0.395717 0.207641 0.49347  -0.136469040698
 C2 0.374385 0.264654 0.43342  -0.136469040698
 C6 0.363748 0.351117 0.44991  0.0208897093023
 C2 0.372486 0.378775 0.52798  -0.136469040698
 C2 0.393352 0.321635 0.58816  -0.136469040698
 C5 0.341946 0.414175 0.38535  -0.0746490406977
 C3 0.481304 0.376159 0.21210  -0.0579365406977
 C3 0.403366 0.362036 0.25421  -0.0579365406977
 C4 0.488411 0.456189 0.31745  0.146464709302
 C3 0.515905 0.557909 0.58221  -0.0579365406977
 C3 0.585867 0.52391 0.53905  -0.0579365406977
 C4 0.565401 0.447195 0.64744  0.146464709302
 C5 0.688738 0.394673 0.55801  -0.0746490406977
 C6 0.656345 0.321802 0.50716  0.0208897093023
 C2 0.638392 0.334735 0.42689  -0.136469040698
 C2 0.613013 0.267243 0.37868  -0.136469040698
 C6 0.60617 0.184883 0.40929  0.0208897093023
 C2 0.623002 0.17206 0.48956  -0.136469040698
 C2 0.647187 0.23997 0.53814  -0.136469040698
 C5 0.582784 0.111165 0.35586  -0.0746490406977
 C3 0.764384 0.097037 0.21136  -0.0579365406977
 C3 0.681884 0.129099 0.23398  -0.0579365406977
 C4 0.728095 0.034216 0.3218  0.146464709302
 C1 0.79937 0.391064 0.8138  0.664379709302
 C2 0.755378 0.309218 0.83647  -0.136469040698
 C2 0.707245 0.263206 0.78452  -0.136469040698
 C1 0.665001 0.179117 0.80142  0.664379709302
 C1 0.890208 0.570908 0.55389  0.664379709302
 C2 0.936048 0.551002 0.47768  -0.136469040698
 C2 0.953704 0.607903 0.42091  -0.136469040698
 C1 0.000706 0.584993 0.34591  0.664379709302
 C3 0.705321 0.663262 0.69240  -0.0579365406977
 C3 0.634616 0.700299 0.7321  -0.0579365406977
 C4 0.691001 0.595373 0.80456  0.146464709302
 C5 0.560362 0.675269 0.86538  -0.0746490406977
 C6 0.59327 0.735578 0.92860  0.0208897093023
 C2 0.60435 0.707641 0.00646  -0.136469040698
 C2 0.625698 0.76465 0.06653  -0.136469040698
 C6 0.636318 0.851121 0.05005  0.0208897093023
 C2 0.627557 0.878786 0.97196  -0.136469040698
 C2 0.606687 0.821647 0.91177  -0.136469040698
 C5 0.658137 0.914169 0.11463  -0.0746490406977
 C3 0.518737 0.87617 0.28788  -0.0579365406977
 C3 0.596678 0.862044 0.24577  -0.0579365406977
 C4 0.511668 0.956171 0.18252  0.146464709302
 C3 0.484141 0.057908 0.91771  -0.0579365406977
 C3 0.414165 0.023907 0.96086  -0.0579365406977
 C4 0.43463 0.947173 0.85247  0.146464709302
 C5 0.311288 0.894635 0.941  -0.0746490406977
 C6 0.343684 0.821783 0.99275  0.0208897093023
 C2 0.361628 0.834738 0.07305  -0.136469040698
 C2 0.387011 0.76726 0.12126  -0.136469040698
 C6 0.393871 0.684898 0.09065  0.0208897093023
 C2 0.377053 0.672063 0.01037  -0.136469040698
 C2 0.352866 0.739953 0.96176  -0.136469040698
 C5 0.417254 0.611197 0.14408  -0.0746490406977
 C3 0.235667 0.597055 0.28860  -0.0579365406977
 C3 0.31817 0.629128 0.26597  -0.0579365406977
 C4 0.271933 0.534235 0.17814  0.146464709302
 C1 0.299506 0.109332 0.18608  0.664379709302
 C2 0.255422 0.191166 0.16360  -0.136469040698
 C2 0.207029 0.236901 0.2155  -0.136469040698
 C1 0.164881 0.32101 0.19861  0.664379709302
 C1 0.390177 0.929105 0.44604  0.664379709302
 C2 0.43603 0.948997 0.52229  -0.136469040698
 C2 0.453789 0.892051 0.57901  -0.136469040698
 C1 0.50078 0.914991 0.65406  0.664379709302
 C3 0.20527 0.83688 0.30744  -0.0579365406977
 C3 0.134518 0.799815 0.26770  -0.0579365406977
 C4 0.190848 0.90472 0.19525  0.146464709302
 C5 0.060158 0.824721 0.13442  -0.0746490406977
 C6 0.093111 0.764411 0.0712  0.0208897093023
 C2 0.104376 0.792362 0.99344  -0.136469040698
 C2 0.125842 0.735356 0.93343  -0.136469040698
 C6 0.136388 0.648882 0.94993  0.0208897093023
 C2 0.127429 0.621205 0.02799  -0.136469040698
 C2 0.106456 0.678341 0.08813  -0.136469040698
 C5 0.158292 0.585854 0.88539  -0.0746490406977
 C3 0.018824 0.623855 0.71205  -0.0579365406977
 C3 0.096822 0.637929 0.75418  -0.0579365406977
 C4 0.011763 0.54387 0.81741  0.146464709302
 C3 0.984009 0.442195 0.08218  -0.0579365406977
 C3 0.914006 0.476184 0.03899  -0.0579365406977
 C4 0.934476 0.552835 0.14745  0.146464709302
 C5 0.811104 0.605377 0.05794  -0.0746490406977
 C6 0.84353 0.678248 0.00715  0.0208897093023
 C2 0.861688 0.665281 0.92690  -0.136469040698
 C2 0.887146 0.732767 0.87876  -0.136469040698
 C6 0.893929 0.815131 0.90938  0.0208897093023
 C2 0.876893 0.827983 0.98960  -0.136469040698
 C2 0.852624 0.760085 0.0381  -0.136469040698
 C5 0.917371 0.888838 0.85600  -0.0746490406977
 C3 0.735698 0.903103 0.71140  -0.0579365406977
 C3 0.818205 0.871011 0.73404  -0.0579365406977
 C4 0.772079 0.965861 0.82190  0.146464709302
 N1 0.760002 0.402292 0.2382  -0.394785290698
 N2 0.873415 0.343111 0.30301  0.0534272093023
 N1 0.033923 0.06476 0.74787  -0.394785290698
 N2 0.9083 0.086868 0.67941  0.0534272093023
 N1 0.003719 0.990556 0.35016  -0.394785290698
 N2 0.116478 0.04605 0.41867  0.0534272093023
 N1 0.29266 0.462179 0.73331  -0.394785290698
 N2 0.159364 0.41143 0.69590  0.0534272093023
 N1 0.259934 0.097769 0.7617  -0.394785290698
 N2 0.373304 0.156927 0.6970  0.0534272093023
 N1 0.534 0.435271 0.25208  -0.394785290698
 N2 0.408436 0.413113 0.3205  0.0534272093023
 N1 0.503598 0.509488 0.64978  -0.394785290698
 N2 0.616254 0.45397 0.58130  0.0534272093023
 N1 0.792738 0.037901 0.26656  -0.394785290698
 N2 0.659494 0.088642 0.30394  0.0534272093023
 N1 0.740117 0.597817 0.73811  -0.394785290698
 N2 0.626743 0.656955 0.80288  0.0534272093023
 N1 0.46606 0.935268 0.24788  -0.394785290698
 N2 0.591634 0.913103 0.17947  0.0534272093023
 N1 0.496444 0.009483 0.85014  -0.394785290698
 N2 0.383773 0.953947 0.91860  0.0534272093023
 N1 0.207297 0.537913 0.23339  -0.394785290698
 N2 0.340545 0.58867 0.19601  0.0534272093023
 N1 0.240035 0.902307 0.26171  -0.394785290698
 N2 0.126575 0.843133 0.19695  0.0534272093023
 N1 0.966142 0.564791 0.75203  -0.394785290698
 N2 0.091784 0.586877 0.82048  0.0534272093023
 N1 0.996323 0.490577 0.14979  -0.394785290698
 N2 0.883588 0.546071 0.08128  0.0534272093023
 N1 0.707392 0.962214 0.76662  -0.394785290698
 N2 0.840654 0.911433 0.80403  0.0534272093023
 O1 0.691242 0.595899 0.23867  -0.620875290698
 O2 0.675732 0.558315 0.36672  -0.599955290698
 O1 0.874978 0.854751 0.23992  -0.620875290698
 O2 0.828318 0.856065 0.36719  -0.599955290698
 O1 0.624487 0.496739 0.09692  -0.620875290698
 O2 0.628546 0.354846 0.07368  -0.599955290698
 O1 0.468933 0.492305 0.8402  -0.620875290698
 O2 0.491708 0.359667 0.79290  -0.599955290698
 O1 0.191241 0.904111 0.76135  -0.620875290698
 O2 0.17582 0.942002 0.63336  -0.599955290698
 O1 0.374941 0.64532 0.76003  -0.620875290698
 O2 0.328253 0.64402 0.63271  -0.599955290698
 O1 0.12449 0.003256 0.90306  -0.620875290698
 O2 0.128554 0.145147 0.92630  -0.599955290698
 O1 0.968952 0.007705 0.15971  -0.620875290698
 O2 0.99178 0.14037 0.20697  -0.599955290698
 O1 0.808838 0.404143 0.73859  -0.620875290698
 O2 0.824066 0.442298 0.86653  -0.599955290698
 O1 0.625106 0.14537 0.73995  -0.620875290698
 O2 0.67182 0.144046 0.8672  -0.599955290698
 O1 0.875528 0.503268 0.59687  -0.620875290698
 O2 0.871481 0.645152 0.57363  -0.599955290698
 O1 0.031074 0.507695 0.3402  -0.620875290698
 O2 0.008268 0.640352 0.29300  -0.599955290698
 O1 0.308795 0.095922 0.26131  -0.620875290698
 O2 0.324311 0.058395 0.13324  -0.599955290698
 O1 0.125021 0.354754 0.26004  -0.620875290698
 O2 0.1717 0.356056 0.1327  -0.599955290698
 O1 0.375568 0.996748 0.40304  -0.620875290698
 O2 0.371483 0.854854 0.42627  -0.599955290698
 O1 0.531127 0.992306 0.65973  -0.620875290698
 O2 0.508327 0.859653 0.70699  -0.599955290698
