#======================================================================

# CRYSTAL DATA

#----------------------------------------------------------------------

data_VESTA_phase_1


_pd_phase_name                         MOF
_cell_length_a                         21.12500
_cell_length_b                         21.12500
_cell_length_c                         16.69800
_cell_angle_alpha                      90.09800
_cell_angle_beta                       90.06700
_cell_angle_gamma                      104.79800
_symmetry_space_group_name_H-M         "P 1"
_symmetry_Int_Tables_number            1

loop_
_symmetry_equiv_pos_as_xyz
   "x, y, z"

loop_
   _atom_site_label
   _atom_site_fract_x
   _atom_site_fract_y
   _atom_site_fract_z
 _atom_site_charge
 Zn1 0.069486 0.122019 0.90344  1.10079414634
 Zn1 0.071708 0.622027 0.9058  1.10079414634
 Zn1 0.569377 0.121687 0.90356  1.10079414634
 Zn1 0.571998 0.621925 0.90317  1.10079414634
 Zn1 0.186065 0.083591 0.94349  1.10079414634
 Zn1 0.186519 0.583032 0.94381  1.10079414634
 Zn1 0.686012 0.083347 0.94348  1.10079414634
 Zn1 0.688089 0.583375 0.94128  1.10079414634
 Zn1 0.430838 0.380304 0.40592  1.10079414634
 Zn1 0.430436 0.880586 0.40600  1.10079414634
 Zn1 0.930793 0.380297 0.40304  1.10079414634
 Zn1 0.930536 0.880449 0.40624  1.10079414634
 Zn1 0.313489 0.417417 0.44164  1.10079414634
 Zn1 0.314005 0.919407 0.44395  1.10079414634
 Zn1 0.813912 0.417422 0.44095  1.10079414634
 Zn1 0.814206 0.919194 0.44411  1.10079414634
 Zn1 0.379314 0.430802 0.59392  1.10079414634
 Zn1 0.378358 0.930376 0.59668  1.10079414634
 Zn1 0.880067 0.431125 0.59349  1.10079414634
 Zn1 0.878747 0.93047 0.5967  1.10079414634
 Zn1 0.416851 0.313931 0.55601  1.10079414634
 Zn1 0.416855 0.81404 0.5559  1.10079414634
 Zn1 0.917107 0.314261 0.55581  1.10079414634
 Zn1 0.916912 0.814017 0.55724  1.10079414634
 Zn1 0.119448 0.06944 0.09370  1.10079414634
 Zn1 0.122367 0.571908 0.09631  1.10079414634
 Zn1 0.619494 0.06945 0.09374  1.10079414634
 Zn1 0.621545 0.569747 0.09352  1.10079414634
 Zn1 0.080611 0.186029 0.05596  1.10079414634
 Zn1 0.083703 0.68837 0.05727  1.10079414634
 Zn1 0.580656 0.18601 0.05593  1.10079414634
 Zn1 0.583239 0.686097 0.05568  1.10079414634
 H1 0.25724 0.046675 0.70625  0.113207479675
 H1 0.257705 0.545179 0.705  0.113207479675
 H1 0.7567 0.045438 0.70643  0.113207479675
 H1 0.757585 0.544567 0.70350  0.113207479675
 H1 0.129308 0.424092 0.53332  0.113207479675
 H1 0.128868 0.923506 0.53596  0.113207479675
 H1 0.628895 0.422915 0.53224  0.113207479675
 H1 0.628913 0.922842 0.53509  0.113207479675
 H1 0.052719 0.044336 0.69794  0.113207479675
 H1 0.053406 0.543832 0.6971  0.113207479675
 H1 0.552278 0.043345 0.69697  0.113207479675
 H1 0.553331 0.543355 0.69545  0.113207479675
 H1 0.244454 0.456457 0.20606  0.113207479675
 H1 0.242531 0.95628 0.20647  0.113207479675
 H1 0.744337 0.455948 0.20356  0.113207479675
 H1 0.742526 0.955637 0.20656  0.113207479675
 H1 0.369472 0.076592 0.0334  0.113207479675
 H1 0.371643 0.577197 0.03356  0.113207479675
 H1 0.869338 0.076245 0.03362  0.113207479675
 H1 0.872683 0.578687 0.03379  0.113207479675
 H1 0.448338 0.456693 0.19521  0.113207479675
 H1 0.446764 0.957691 0.1965  0.113207479675
 H1 0.948749 0.457825 0.19554  0.113207479675
 H1 0.946839 0.957319 0.1964  0.113207479675
 H1 0.454395 0.243938 0.79339  0.113207479675
 H1 0.45608 0.743013 0.79337  0.113207479675
 H1 0.954634 0.244268 0.79302  0.113207479675
 H1 0.956261 0.742972 0.79481  0.113207479675
 H1 0.07662 0.371381 0.96544  0.113207479675
 H1 0.078686 0.872666 0.96455  0.113207479675
 H1 0.577608 0.371458 0.96445  0.113207479675
 H1 0.578103 0.871525 0.96454  0.113207479675
 H1 0.45807 0.448755 0.80198  0.113207479675
 H1 0.457183 0.947217 0.80232  0.113207479675
 H1 0.957563 0.448909 0.80249  0.113207479675
 H1 0.956828 0.947096 0.8023  0.113207479675
 H1 0.044061 0.25685 0.29279  0.113207479675
 H1 0.045242 0.75863 0.29497  0.113207479675
 H1 0.544634 0.257396 0.29341  0.113207479675
 H1 0.543546 0.75697 0.29230  0.113207479675
 H1 0.423793 0.130292 0.46588  0.113207479675
 H1 0.422033 0.629993 0.46439  0.113207479675
 H1 0.923214 0.130359 0.46582  0.113207479675
 H1 0.922487 0.629998 0.4645  0.113207479675
 H1 0.04255 0.052636 0.30360  0.113207479675
 H1 0.043241 0.554173 0.3022  0.113207479675
 H1 0.543415 0.05321 0.3034  0.113207479675
 H1 0.542211 0.552777 0.30283  0.113207479675
 C1 0.156096 0.051414 0.70838  -0.177982520325
 C1 0.156645 0.550261 0.70775  -0.177982520325
 C1 0.655559 0.050278 0.70808  -0.177982520325
 C1 0.656579 0.549759 0.7059  -0.177982520325
 C2 0.209059 0.029871 0.67885  0.0318241463415
 C2 0.209565 0.528875 0.67766  0.0318241463415
 C2 0.708603 0.028737 0.67879  0.0318241463415
 C2 0.709398 0.528161 0.67602  0.0318241463415
 C1 0.200078 0.485743 0.61228  -0.177982520325
 C1 0.199577 0.986118 0.61420  -0.177982520325
 C1 0.699792 0.484763 0.61095  -0.177982520325
 C1 0.699326 0.985112 0.61399  -0.177982520325
 C2 0.137058 0.460334 0.58110  0.0318241463415
 C2 0.136548 0.960135 0.58329  0.0318241463415
 C2 0.636737 0.459289 0.57988  0.0318241463415
 C2 0.636428 0.959323 0.58259  0.0318241463415
 C1 0.084092 0.480394 0.6123  -0.177982520325
 C1 0.083468 0.980161 0.61428  -0.177982520325
 C1 0.583829 0.479541 0.61105  -0.177982520325
 C1 0.583287 0.979423 0.61327  -0.177982520325
 C2 0.093815 0.027892 0.67441  0.0318241463415
 C2 0.09445 0.527457 0.67329  0.0318241463415
 C2 0.593443 0.026923 0.67364  0.0318241463415
 C2 0.594321 0.526843 0.67171  0.0318241463415
 C3 0.1616 0.091485 0.78314  0.683557479675
 C3 0.161873 0.589424 0.78331  0.683557479675
 C3 0.66062 0.090272 0.78287  0.683557479675
 C3 0.66219 0.589352 0.78108  0.683557479675
 C3 0.255535 0.463682 0.57643  0.683557479675
 C3 0.255197 0.964299 0.5786  0.683557479675
 C3 0.755396 0.462872 0.57533  0.683557479675
 C3 0.755038 0.963236 0.57881  0.683557479675
 C3 0.01559 0.447481 0.58739  0.683557479675
 C3 0.014955 0.946805 0.58960  0.683557479675
 C3 0.515247 0.446776 0.58619  0.683557479675
 C3 0.514812 0.946349 0.58822  0.683557479675
 C1 0.34532 0.450785 0.20697  -0.177982520325
 C1 0.343665 0.951359 0.20802  -0.177982520325
 C1 0.845444 0.451015 0.20586  -0.177982520325
 C1 0.843722 0.950826 0.20803  -0.177982520325
 C2 0.292331 0.472611 0.17795  0.0318241463415
 C2 0.290444 0.972541 0.17846  0.0318241463415
 C2 0.792493 0.472621 0.17627  0.0318241463415
 C2 0.790427 0.971976 0.17852  0.0318241463415
 C1 0.299381 0.015308 0.11302  -0.177982520325
 C1 0.301415 0.515881 0.11302  -0.177982520325
 C1 0.799297 0.014854 0.11314  -0.177982520325
 C1 0.801973 0.516295 0.11171  -0.177982520325
 C2 0.362152 0.040605 0.08131  0.0318241463415
 C2 0.364182 0.540945 0.08114  0.0318241463415
 C2 0.862061 0.040212 0.08142  0.0318241463415
 C2 0.864987 0.542111 0.08100  0.0318241463415
 C1 0.415351 0.020582 0.11193  -0.177982520325
 C1 0.417279 0.52042 0.11136  -0.177982520325
 C1 0.915314 0.020232 0.11195  -0.177982520325
 C1 0.917994 0.521902 0.11192  -0.177982520325
 C2 0.407238 0.473353 0.17204  0.0318241463415
 C2 0.405542 0.973967 0.17305  0.0318241463415
 C2 0.907673 0.474309 0.17197  0.0318241463415
 C2 0.905568 0.973542 0.1729  0.0318241463415
 C3 0.340241 0.411578 0.28218  0.683557479675
 C3 0.339161 0.912737 0.28367  0.683557479675
 C3 0.840123 0.411201 0.28063  0.683557479675
 C3 0.839481 0.912053 0.28360  0.683557479675
 C3 0.243775 0.037154 0.07733  0.683557479675
 C3 0.2457 0.538181 0.07831  0.683557479675
 C3 0.74373 0.036873 0.07745  0.683557479675
 C3 0.746454 0.538261 0.07598  0.683557479675
 C3 0.483637 0.053165 0.08628  0.683557479675
 C3 0.48573 0.552907 0.08586  0.683557479675
 C3 0.983592 0.052897 0.08627  0.683557479675
 C3 0.986495 0.555101 0.08760  0.683557479675
 C1 0.450416 0.345312 0.79133  -0.177982520325
 C1 0.450728 0.843995 0.79151  -0.177982520325
 C1 0.950315 0.345532 0.79136  -0.177982520325
 C1 0.950684 0.843889 0.79217  -0.177982520325
 C2 0.47141 0.292053 0.82092  0.0318241463415
 C2 0.472533 0.791163 0.82096  0.0318241463415
 C2 0.971339 0.292276 0.82090  0.0318241463415
 C2 0.972704 0.791287 0.82198  0.0318241463415
 C1 0.014502 0.301238 0.8861  -0.177982520325
 C1 0.016534 0.801315 0.88665  -0.177982520325
 C1 0.514867 0.301146 0.88585  -0.177982520325
 C1 0.516082 0.800716 0.88588  -0.177982520325
 C2 0.040397 0.364083 0.91768  0.0318241463415
 C2 0.042017 0.864522 0.91727  0.0318241463415
 C2 0.541178 0.364086 0.91692  0.0318241463415
 C2 0.54163 0.863745 0.91704  0.0318241463415
 C1 0.02078 0.417448 0.88683  -0.177982520325
 C1 0.021342 0.917163 0.88618  -0.177982520325
 C1 0.521592 0.417407 0.88595  -0.177982520325
 C1 0.521307 0.916679 0.88613  -0.177982520325
 C2 0.474122 0.407452 0.82554  0.0318241463415
 C2 0.47379 0.906213 0.82578  0.0318241463415
 C2 0.973633 0.407598 0.8260  0.0318241463415
 C2 0.973646 0.906292 0.82601  0.0318241463415
 C3 0.410841 0.340254 0.7162  0.683557479675
 C3 0.410861 0.838673 0.71661  0.683557479675
 C3 0.911008 0.340446 0.71604  0.683557479675
 C3 0.910829 0.838204 0.71721  0.683557479675
 C3 0.035855 0.245269 0.92150  0.683557479675
 C3 0.039049 0.746229 0.92256  0.683557479675
 C3 0.536057 0.245172 0.92139  0.683557479675
 C3 0.538214 0.74518 0.92124  0.683557479675
 C3 0.054158 0.485803 0.9121  0.683557479675
 C3 0.054149 0.985823 0.91060  0.683557479675
 C3 0.554982 0.48588 0.91065  0.683557479675
 C3 0.55416 0.985287 0.91087  0.683557479675
 C1 0.049016 0.155742 0.29170  -0.177982520325
 C1 0.049993 0.657469 0.29217  -0.177982520325
 C1 0.549703 0.156295 0.29194  -0.177982520325
 C1 0.54859 0.655858 0.29105  -0.177982520325
 C2 0.02771 0.209003 0.32091  0.0318241463415
 C2 0.028492 0.710404 0.3220  0.0318241463415
 C2 0.528354 0.209481 0.321  0.0318241463415
 C2 0.527064 0.709047 0.32021  0.0318241463415
 C1 0.485354 0.200485 0.38669  -0.177982520325
 C1 0.483794 0.700095 0.3852  -0.177982520325
 C1 0.984701 0.200219 0.38616  -0.177982520325
 C1 0.984856 0.700824 0.38669  -0.177982520325
 C2 0.459989 0.137682 0.41823  0.0318241463415
 C2 0.458301 0.637335 0.41682  0.0318241463415
 C2 0.959318 0.137571 0.4180  0.0318241463415
 C2 0.959 0.637737 0.41721  0.0318241463415
 C1 0.480159 0.084527 0.38767  -0.177982520325
 C1 0.478567 0.58417 0.38650  -0.177982520325
 C1 0.979436 0.084317 0.38777  -0.177982520325
 C1 0.979213 0.584758 0.38613  -0.177982520325
 C2 0.026272 0.093954 0.32683  0.0318241463415
 C2 0.026729 0.595197 0.3259  0.0318241463415
 C2 0.52706 0.094411 0.32686  0.0318241463415
 C2 0.525713 0.593997 0.32595  0.0318241463415
 C3 0.087965 0.160178 0.21630  0.683557479675
 C3 0.089805 0.662789 0.21739  0.683557479675
 C3 0.58835 0.160616 0.21630  0.683557479675
 C3 0.588059 0.660356 0.21600  0.683557479675
 C3 0.463234 0.256014 0.42229  0.683557479675
 C3 0.461883 0.755731 0.42090  0.683557479675
 C3 0.962896 0.256 0.42140  0.683557479675
 C3 0.962922 0.756298 0.42267  0.683557479675
 C3 0.447323 0.016201 0.4128  0.683557479675
 C3 0.445992 0.515905 0.41211  0.683557479675
 C3 0.946879 0.016144 0.41368  0.683557479675
 C3 0.9463 0.51619 0.41061  0.683557479675
 O1 0.116135 0.11921 0.79833  -0.597405853659
 O1 0.116142 0.616686 0.79906  -0.597405853659
 O1 0.614556 0.117206 0.79795  -0.597405853659
 O1 0.616662 0.616822 0.79689  -0.597405853659
 O1 0.209815 0.091406 0.8301  -0.597405853659
 O1 0.210044 0.589038 0.83025  -0.597405853659
 O1 0.709014 0.09096 0.82990  -0.597405853659
 O1 0.71064 0.589153 0.82770  -0.597405853659
 O1 0.309631 0.475096 0.61482  -0.597405853659
 O1 0.30888 0.974842 0.61788  -0.597405853659
 O1 0.809374 0.47439 0.61397  -0.597405853659
 O1 0.808854 0.97449 0.61782  -0.597405853659
 O1 0.244204 0.434219 0.50887  -0.597405853659
 O1 0.24442 0.936019 0.51037  -0.597405853659
 O1 0.744272 0.433614 0.50760  -0.597405853659
 O1 0.744236 0.934215 0.51093  -0.597405853659
 O1 0.472479 0.479231 0.5974  -0.597405853659
 O1 0.471753 0.978283 0.60045  -0.597405853659
 O1 0.972852 0.480257 0.59729  -0.597405853659
 O1 0.97189 0.97895 0.60087  -0.597405853659
 O1 0.004765 0.388692 0.56207  -0.597405853659
 O1 0.004514 0.888404 0.56300  -0.597405853659
 O1 0.504395 0.388352 0.55946  -0.597405853659
 O1 0.50439 0.888266 0.56052  -0.597405853659
 O1 0.386492 0.385325 0.29872  -0.597405853659
 O1 0.385345 0.886166 0.2994  -0.597405853659
 O1 0.885851 0.38393 0.2962  -0.597405853659
 O1 0.885986 0.885873 0.29927  -0.597405853659
 O1 0.291258 0.410914 0.32817  -0.597405853659
 O1 0.290903 0.912885 0.33044  -0.597405853659
 O1 0.791642 0.411073 0.32720  -0.597405853659
 O1 0.791195 0.911715 0.33054  -0.597405853659
 O1 0.189357 0.025207 0.11487  -0.597405853659
 O1 0.192229 0.527792 0.11776  -0.597405853659
 O1 0.689344 0.025106 0.11503  -0.597405853659
 O1 0.692585 0.527388 0.11460  -0.597405853659
 O1 0.255417 0.066991 0.01019  -0.597405853659
 O1 0.256213 0.566694 0.01030  -0.597405853659
 O1 0.755403 0.066748 0.01031  -0.597405853659
 O1 0.757616 0.566928 0.00807  -0.597405853659
 O1 0.026451 0.020409 0.09676  -0.597405853659
 O1 0.029368 0.522596 0.09772  -0.597405853659
 O1 0.526471 0.020706 0.09694  -0.597405853659
 O1 0.528465 0.520291 0.09645  -0.597405853659
 O1 0.49419 0.111491 0.05958  -0.597405853659
 O1 0.496559 0.611336 0.05948  -0.597405853659
 O1 0.994122 0.111281 0.05978  -0.597405853659
 O1 0.997091 0.613907 0.06251  -0.597405853659
 O1 0.38371 0.386054 0.70071  -0.597405853659
 O1 0.382944 0.884032 0.70170  -0.597405853659
 O1 0.884099 0.386368 0.70018  -0.597405853659
 O1 0.88315 0.883636 0.70169  -0.597405853659
 O1 0.410801 0.291771 0.66955  -0.597405853659
 O1 0.411216 0.790695 0.66931  -0.597405853659
 O1 0.910816 0.29186 0.66944  -0.597405853659
 O1 0.911053 0.789908 0.67032  -0.597405853659
 O1 0.025098 0.191638 0.88215  -0.597405853659
 O1 0.027446 0.691798 0.88491  -0.597405853659
 O1 0.5252 0.191467 0.88218  -0.597405853659
 O1 0.527767 0.691572 0.88191  -0.597405853659
 O1 0.064034 0.255749 0.98988  -0.597405853659
 O1 0.06894 0.758159 0.98982  -0.597405853659
 O1 0.564155 0.255723 0.98981  -0.597405853659
 O1 0.56661 0.755878 0.98948  -0.597405853659
 O1 0.021782 0.028567 0.8990  -0.597405853659
 O1 0.022047 0.529008 0.90227  -0.597405853659
 O1 0.521788 0.028054 0.89953  -0.597405853659
 O1 0.522797 0.528874 0.8995  -0.597405853659
 O1 0.112828 0.496027 0.93781  -0.597405853659
 O1 0.112541 0.996619 0.93735  -0.597405853659
 O1 0.613484 0.496418 0.93703  -0.597405853659
 O1 0.612579 0.99601 0.93756  -0.597405853659
 O1 0.114285 0.11378 0.20063  -0.597405853659
 O1 0.116824 0.616841 0.2018  -0.597405853659
 O1 0.614602 0.114175 0.20051  -0.597405853659
 O1 0.614458 0.61397 0.20050  -0.597405853659
 O1 0.088444 0.208626 0.16961  -0.597405853659
 O1 0.090396 0.71133 0.17081  -0.597405853659
 O1 0.588557 0.208917 0.16949  -0.597405853659
 O1 0.58888 0.708884 0.16930  -0.597405853659
 O1 0.474961 0.310321 0.38460  -0.597405853659
 O1 0.472616 0.809586 0.3823  -0.597405853659
 O1 0.974592 0.309974 0.38295  -0.597405853659
 O1 0.974843 0.810712 0.38514  -0.597405853659
 O1 0.433386 0.244423 0.48947  -0.597405853659
 O1 0.433312 0.74465 0.48893  -0.597405853659
 O1 0.933461 0.244883 0.48888  -0.597405853659
 O1 0.933171 0.744633 0.48985  -0.597405853659
 O1 0.478974 0.473349 0.40268  -0.597405853659
 O1 0.479928 0.973376 0.4030  -0.597405853659
 O1 0.97882 0.473434 0.39939  -0.597405853659
 O1 0.97938 0.973358 0.40315  -0.597405853659
 O1 0.388636 0.005691 0.43822  -0.597405853659
 O1 0.387296 0.505054 0.43758  -0.597405853659
 O1 0.888544 0.005638 0.44044  -0.597405853659
 O1 0.887881 0.505333 0.43697  -0.597405853659
 O2 0.130965 0.132563 0.99956  -0.583689853659
 O2 0.133488 0.633642 0.  -0.583689853659
 O2 0.631014 0.132452 0.99947  -0.583689853659
 O2 0.633708 0.632659 0.99896  -0.583689853659
 O2 0.367274 0.368109 0.49947  -0.583689853659
 O2 0.36747 0.86903 0.50047  -0.583689853659
 O2 0.868807 0.369001 0.49815  -0.583689853659
 O2 0.867984 0.868898 0.50074  -0.583689853659
