#======================================================================

# CRYSTAL DATA

#----------------------------------------------------------------------

data_VESTA_phase_1


_pd_phase_name                         MOF
_cell_length_a                         13.91800
_cell_length_b                         19.19000
_cell_length_c                         19.67300
_cell_angle_alpha                      89.99800
_cell_angle_beta                       90.00400
_cell_angle_gamma                      90.13800
_symmetry_space_group_name_H-M         "P 1"
_symmetry_Int_Tables_number            1

loop_
_symmetry_equiv_pos_as_xyz
   "x, y, z"

loop_
   _atom_site_label
   _atom_site_fract_x
   _atom_site_fract_y
   _atom_site_fract_z
 _atom_site_charge
 Zn1 0.366384 0.057964 0.111  1.0164816
 Zn2 0.404005 0.95233 0.98858  0.9451716
 Zn1 0.6336 0.442043 0.61131  1.0164816
 Zn2 0.595965 0.54768 0.48857  0.9451716
 Zn1 0.633592 0.942014 0.88870  1.0164816
 Zn2 0.595972 0.047651 0.01142  0.9451716
 Zn1 0.366366 0.557941 0.38869  1.0164816
 Zn2 0.404012 0.452306 0.51143  0.9451716
 Zn1 0.866269 0.941971 0.38876  1.0164816
 Zn2 0.904143 0.047823 0.51151  0.9451716
 Zn1 0.133724 0.557988 0.88873  1.0164816
 Zn2 0.095877 0.452218 0.01147  0.9451716
 Zn1 0.133706 0.058008 0.61124  1.0164816
 Zn2 0.095839 0.952151 0.48847  0.9451716
 Zn1 0.866237 0.441995 0.11130  1.0164816
 Zn2 0.904132 0.547618 0.98857  0.9451716
 H1 0.43273 0.678471 0.21026  0.1030841
 H1 0.443895 0.77403 0.12452  0.1030841
 H1 0.384985 0.924812 0.2801  0.1030841
 H1 0.380198 0.828215 0.36730  0.1030841
 H1 0.050893 0.075728 0.0961  0.1030841
 H1 0.12225 0.930738 0.93802  0.1030841
 H1 0.385562 0.794625 0.02842  0.1030841
 H1 0.355196 0.679556 0.96931  0.1030841
 H1 0.332109 0.680481 0.84274  0.1030841
 H1 0.323547 0.0 0.68743  0.1030841
 H1 0.339139 0.106367 0.7653  0.1030841
 H1 0.377037 0.086058 0.88708  0.1030841
 H2 0.576085 0.905982 0.  0.4492216
 H1 0.567719 0.821529 0.71026  0.1030841
 H1 0.556589 0.726009 0.62447  0.1030841
 H1 0.61491 0.57512 0.78013  0.1030841
 H1 0.619682 0.671681 0.86732  0.1030841
 H1 0.949144 0.424321 0.59624  0.1030841
 H1 0.877689 0.569216 0.43803  0.1030841
 H1 0.614406 0.705449 0.52835  0.1030841
 H1 0.644773 0.8205 0.46920  0.1030841
 H1 0.667885 0.819525 0.34262  0.1030841
 H1 0.676252 0.498773 0.18744  0.1030841
 H1 0.660511 0.393631 0.26542  0.1030841
 H1 0.622713 0.414002 0.38713  0.1030841
 H2 0.423844 0.594017 0.50009  0.4492216
 H1 0.56725 0.321511 0.78974  0.1030841
 H1 0.556082 0.225951 0.87548  0.1030841
 H1 0.614995 0.075169 0.71985  0.1030841
 H1 0.619787 0.171767 0.63270  0.1030841
 H1 0.949074 0.924237 0.90384  0.1030841
 H1 0.877722 0.069231 0.06198  0.1030841
 H1 0.614414 0.205356 0.97158  0.1030841
 H1 0.644783 0.320425 0.0306  0.1030841
 H1 0.667877 0.319499 0.15726  0.1030841
 H1 0.676425 0.998803 0.31257  0.1030841
 H1 0.660832 0.893613 0.23462  0.1030841
 H1 0.622941 0.913922 0.11292  0.1030841
 H2 0.423892 0.094003 0.99984  0.4492216
 H1 0.432333 0.178447 0.28975  0.1030841
 H1 0.44347 0.273972 0.37553  0.1030841
 H1 0.385024 0.424847 0.21988  0.1030841
 H1 0.380238 0.328283 0.13270  0.1030841
 H1 0.050829 0.575666 0.40379  0.1030841
 H1 0.122283 0.430775 0.56201  0.1030841
 H1 0.385564 0.294532 0.47165  0.1030841
 H1 0.355193 0.179483 0.53081  0.1030841
 H1 0.332092 0.180459 0.65738  0.1030841
 H1 0.323717 0.501215 0.8125  0.1030841
 H1 0.339461 0.606356 0.7345  0.1030841
 H1 0.377271 0.585981 0.61287  0.1030841
 H2 0.576126 0.405972 0.49990  0.4492216
 H1 0.933335 0.321593 0.28968  0.1030841
 H1 0.944781 0.226063 0.37537  0.1030841
 H1 0.884899 0.075135 0.21987  0.1030841
 H1 0.880018 0.171717 0.13272  0.1030841
 H1 0.55027 0.924011 0.40399  0.1030841
 H1 0.622778 0.069337 0.5618  0.1030841
 H1 0.885883 0.205361 0.47094  0.1030841
 H1 0.855201 0.320655 0.52931  0.1030841
 H1 0.831972 0.320497 0.65585  0.1030841
 H1 0.823586 0.000659 0.81304  0.1030841
 H1 0.839261 0.895114 0.73571  0.1030841
 H1 0.877333 0.91482 0.61390  0.1030841
 H2 0.076679 0.093992 0.49970  0.4492216
 H1 0.066861 0.178359 0.7896  0.1030841
 H1 0.055436 0.273857 0.87541  0.1030841
 H1 0.11501 0.424868 0.71992  0.1030841
 H1 0.119906 0.32832 0.6327  0.1030841
 H1 0.449771 0.57601 0.90402  0.1030841
 H1 0.377135 0.430601 0.06172  0.1030841
 H1 0.114161 0.294589 0.97115  0.1030841
 H1 0.144832 0.179433 0.02981  0.1030841
 H1 0.167982 0.179908 0.1563  0.1030841
 H1 0.176368 0.500021 0.31280  0.1030841
 H1 0.16079 0.605451 0.23525  0.1030841
 H1 0.122864 0.585474 0.11345  0.1030841
 H2 0.923396 0.40582 0.99997  0.4492216
 H1 0.066589 0.678389 0.7103  0.1030841
 H1 0.055173 0.773922 0.62463  0.1030841
 H1 0.115116 0.924837 0.78013  0.1030841
 H1 0.119994 0.82825 0.86727  0.1030841
 H1 0.449705 0.075975 0.59601  0.1030841
 H1 0.377198 0.93065 0.43819  0.1030841
 H1 0.114102 0.794618 0.52907  0.1030841
 H1 0.144764 0.679315 0.47072  0.1030841
 H1 0.167989 0.679454 0.34417  0.1030841
 H1 0.176379 0.999259 0.18694  0.1030841
 H1 0.160706 0.104824 0.26425  0.1030841
 H1 0.122657 0.085137 0.38606  0.1030841
 H2 0.923304 0.905979 0.50029  0.4492216
 H1 0.933042 0.821642 0.21027  0.1030841
 H1 0.944435 0.726142 0.12454  0.1030841
 H1 0.885046 0.575124 0.28006  0.1030841
 H1 0.880145 0.671675 0.36723  0.1030841
 H1 0.550186 0.42394 0.09602  0.1030841
 H1 0.622822 0.569353 0.93833  0.1030841
 H1 0.886082 0.705326 0.02850  0.1030841
 H1 0.855249 0.820295 0.96953  0.1030841
 H1 0.831887 0.81937 0.84296  0.1030841
 H1 0.823545 0.498784 0.68746  0.1030841
 H1 0.839128 0.393608 0.76536  0.1030841
 H1 0.877063 0.41399 0.88707  0.1030841
 H2 0.07664 0.593997 0.  0.4492216
 C1 0.405412 0.747809 0.29382  -0.1412004
 C2 0.423648 0.732636 0.22537  -0.0496419
 C2 0.428436 0.785951 0.17745  -0.0496419
 C1 0.412581 0.855231 0.19662  -0.1412004
 C2 0.396049 0.870659 0.26556  -0.0496419
 C2 0.393298 0.817448 0.31370  -0.0496419
 C3 0.394488 0.690367 0.34530  0.671194933333
 C3 0.409452 0.912272 0.14437  0.671194933333
 C3 0.201955 0.007229 0.03715  0.671194933333
 C1 0.097314 0.003672 0.01877  -0.1412004
 C2 0.028329 0.042703 0.0540  -0.0496419
 C2 0.067931 0.960931 0.9646  -0.0496419
 C4 0.37531 0.791186 0.97371  0.2097441
 C2 0.358844 0.727987 0.94065  -0.0496419
 C2 0.345997 0.728383 0.87075  -0.0496419
 C1 0.349142 0.791839 0.83562  -0.1412004
 C5 0.334599 0.793725 0.76102  0.3392616
 C5 0.33741 0.866036 0.7256  0.3392616
 C1 0.346302 0.928677 0.76955  -0.1412004
 C2 0.338042 0.995596 0.74160  -0.0496419
 C2 0.347097 0.053226 0.7840  -0.0496419
 C4 0.367016 0.042129 0.85270  0.2097441
 C6 0.363383 0.922221 0.83976  0.1971066
 C6 0.365141 0.853379 0.87287  0.1971066
 C1 0.594708 0.75213 0.79383  -0.1412004
 C2 0.57666 0.767349 0.72536  -0.0496419
 C2 0.571915 0.714058 0.67742  -0.0496419
 C1 0.587579 0.64476 0.696  -0.1412004
 C2 0.603979 0.629291 0.76555  -0.0496419
 C2 0.606679 0.682478 0.81371  -0.0496419
 C3 0.605517 0.809548 0.84534  0.671194933333
 C3 0.590623 0.587721 0.64435  0.671194933333
 C3 0.798034 0.492777 0.53720  0.671194933333
 C1 0.902673 0.496336 0.51882  -0.1412004
 C2 0.971677 0.457313 0.55408  -0.0496419
 C2 0.932017 0.539024 0.46468  -0.0496419
 C4 0.62466 0.708868 0.47364  0.2097441
 C2 0.641131 0.772056 0.44056  -0.0496419
 C2 0.653993 0.771638 0.37066  -0.0496419
 C1 0.650856 0.708171 0.33556  -0.1412004
 C5 0.665396 0.706259 0.26096  0.3392616
 C5 0.662553 0.633941 0.22557  0.3392616
 C1 0.65362 0.571313 0.26954  -0.1412004
 C2 0.661785 0.504379 0.24162  -0.0496419
 C2 0.652649 0.446781 0.28405  -0.0496419
 C4 0.632785 0.45791 0.35274  0.2097441
 C6 0.63656 0.577796 0.33974  0.1971066
 C6 0.634841 0.646644 0.3728  0.1971066
 C1 0.594575 0.252172 0.70618  -0.1412004
 C2 0.576326 0.267345 0.77462  -0.0496419
 C2 0.571546 0.214031 0.8225  -0.0496419
 C1 0.587402 0.144751 0.80338  -0.1412004
 C2 0.603938 0.129323 0.73444  -0.0496419
 C2 0.606678 0.182533 0.68630  -0.0496419
 C3 0.605491 0.309613 0.65470  0.671194933333
 C3 0.590533 0.08771 0.85563  0.671194933333
 C3 0.798018 0.992744 0.96284  0.671194933333
 C1 0.902658 0.996297 0.9812  -0.1412004
 C2 0.971643 0.957264 0.94596  -0.0496419
 C2 0.932041 0.039038 0.03532  -0.0496419
 C4 0.624669 0.208795 0.02629  0.2097441
 C2 0.641137 0.271994 0.05934  -0.0496419
 C2 0.653986 0.271597 0.12925  -0.0496419
 C1 0.650841 0.208141 0.16437  -0.1412004
 C5 0.665383 0.206255 0.23898  0.3392616
 C5 0.662568 0.133944 0.27439  0.3392616
 C1 0.653677 0.071303 0.23044  -0.1412004
 C2 0.661932 0.004384 0.258  -0.0496419
 C2 0.652877 0.946754 0.21598  -0.0496419
 C4 0.632961 0.957851 0.14729  0.2097441
 C6 0.636595 0.07776 0.16024  0.1971066
 C6 0.634838 0.146601 0.12713  0.1971066
 C1 0.405278 0.247841 0.20618  -0.1412004
 C2 0.423367 0.232625 0.27464  -0.0496419
 C2 0.428116 0.285918 0.32258  -0.0496419
 C1 0.412419 0.355214 0.30341  -0.1412004
 C2 0.395982 0.37068 0.23446  -0.0496419
 C2 0.393268 0.31749 0.18631  -0.0496419
 C3 0.394466 0.190425 0.15467  0.671194933333
 C3 0.409361 0.412255 0.35565  0.671194933333
 C3 0.201933 0.507201 0.46282  0.671194933333
 C1 0.097299 0.503653 0.48121  -0.1412004
 C2 0.028295 0.542677 0.44595  -0.0496419
 C2 0.067956 0.460967 0.53535  -0.0496419
 C4 0.375314 0.291114 0.5263  0.2097441
 C2 0.358842 0.227926 0.55944  -0.0496419
 C2 0.345978 0.228346 0.62935  -0.0496419
 C1 0.349127 0.291813 0.66444  -0.1412004
 C5 0.334592 0.293727 0.73904  0.3392616
 C5 0.337417 0.366047 0.77443  0.3392616
 C1 0.34636 0.428673 0.73046  -0.1412004
 C2 0.3382 0.495608 0.75838  -0.0496419
 C2 0.347325 0.553205 0.71595  -0.0496419
 C4 0.367194 0.542074 0.64726  0.2097441
 C6 0.363422 0.422189 0.66026  0.1971066
 C6 0.365139 0.35334 0.62718  0.1971066
 C1 0.905535 0.252196 0.20616  -0.1412004
 C2 0.924074 0.267408 0.27458  -0.0496419
 C2 0.928978 0.214097 0.32249  -0.0496419
 C1 0.912869 0.144779 0.30336  -0.1412004
 C2 0.896093 0.129318 0.23444  -0.0496419
 C2 0.89328 0.182521 0.18631  -0.0496419
 C3 0.894457 0.309588 0.15468  0.671194933333
 C3 0.909627 0.087724 0.35561  0.671194933333
 C3 0.701916 0.992624 0.4628  0.671194933333
 C1 0.597284 0.996229 0.48121  -0.1412004
 C2 0.527991 0.957138 0.44605  -0.0496419
 C2 0.568228 0.039095 0.53523  -0.0496419
 C4 0.875568 0.209106 0.5256  0.2097441
 C2 0.858915 0.272438 0.5582  -0.0496419
 C2 0.846001 0.272454 0.62819  -0.0496419
 C1 0.849266 0.209248 0.66372  -0.1412004
 C5 0.83477 0.207797 0.73835  0.3392616
 C5 0.837585 0.135694 0.7741  0.3392616
 C1 0.846497 0.072797 0.73056  -0.1412004
 C2 0.838172 0.006006 0.75886  -0.0496419
 C2 0.84727 0.948163 0.71676  -0.0496419
 C4 0.867269 0.95891 0.6480  0.2097441
 C6 0.86364 0.078884 0.66032  0.1971066
 C6 0.865395 0.147532 0.62683  0.1971066
 C1 0.094502 0.247806 0.70617  -0.1412004
 C2 0.076048 0.232555 0.77459  -0.0496419
 C2 0.071144 0.285847 0.82252  -0.0496419
 C1 0.087167 0.355176 0.803  -0.1412004
 C2 0.10387 0.370674 0.73447  -0.0496419
 C2 0.10669 0.317492 0.68633  -0.0496419
 C3 0.105545 0.190457 0.65465  0.671194933333
 C3 0.090371 0.412233 0.85564  0.671194933333
 C3 0.298095 0.507356 0.96279  0.671194933333
 C1 0.402707 0.503744 0.98119  -0.1412004
 C2 0.47202 0.542861 0.94608  -0.0496419
 C2 0.431715 0.460858 0.035  -0.0496419
 C4 0.124476 0.290975 0.0258  0.2097441
 C2 0.141105 0.227724 0.05866  -0.0496419
 C2 0.153984 0.227882 0.12858  -0.0496419
 C1 0.150741 0.291178 0.16396  -0.1412004
 C5 0.165211 0.292836 0.23861  0.3392616
 C5 0.162406 0.365061 0.27422  0.3392616
 C1 0.15354 0.427784 0.23043  -0.1412004
 C2 0.161851 0.494618 0.25861  -0.0496419
 C2 0.1528 0.552363 0.21641  -0.0496419
 C4 0.132864 0.541456 0.14768  0.2097441
 C6 0.136433 0.421528 0.16022  0.1971066
 C6 0.13465 0.352796 0.12691  0.1971066
 C1 0.094434 0.747776 0.79384  -0.1412004
 C2 0.075874 0.732572 0.72542  -0.0496419
 C2 0.070981 0.785885 0.6775  -0.0496419
 C1 0.087112 0.855201 0.69664  -0.1412004
 C2 0.103906 0.870656 0.76556  -0.0496419
 C2 0.106714 0.817449 0.81369  -0.0496419
 C3 0.105514 0.690381 0.84532  0.671194933333
 C3 0.090351 0.912258 0.64439  0.671194933333
 C3 0.29806 0.007361 0.53714  0.671194933333
 C1 0.402692 0.003757 0.51879  -0.1412004
 C2 0.471985 0.042849 0.55395  -0.0496419
 C2 0.431748 0.960892 0.46477  -0.0496419
 C4 0.124409 0.790866 0.47438  0.2097441
 C2 0.141053 0.727529 0.44173  -0.0496419
 C2 0.153964 0.727498 0.37183  -0.0496419
 C1 0.150699 0.790697 0.33629  -0.1412004
 C5 0.165196 0.792133 0.2616  0.3392616
 C5 0.162388 0.86423 0.22584  0.3392616
 C1 0.153468 0.927134 0.26943  -0.1412004
 C2 0.161789 0.993921 0.24112  -0.0496419
 C2 0.1527 0.051775 0.28320  -0.0496419
 C4 0.13271 0.04104 0.35194  0.2097441
 C6 0.136329 0.921064 0.33967  0.1971066
 C6 0.134575 0.852421 0.37317  0.1971066
 C1 0.905482 0.752191 0.29379  -0.1412004
 C2 0.923879 0.767444 0.22537  -0.0496419
 C2 0.928784 0.714151 0.17744  -0.0496419
 C1 0.912818 0.644818 0.19658  -0.1412004
 C2 0.896157 0.62932 0.26550  -0.0496419
 C2 0.893324 0.682504 0.31364  -0.0496419
 C3 0.894429 0.809535 0.34533  0.671194933333
 C3 0.90962 0.587751 0.14434  0.671194933333
 C3 0.701862 0.492588 0.03725  0.671194933333
 C1 0.597251 0.496205 0.01886  -0.1412004
 C2 0.527938 0.457088 0.05396  -0.0496419
 C2 0.568243 0.539092 0.96485  -0.0496419
 C4 0.875655 0.708762 0.97381  0.2097441
 C2 0.858948 0.77191 0.94082  -0.0496419
 C2 0.845957 0.771518 0.8709  -0.0496419
 C1 0.849146 0.708105 0.83576  -0.1412004
 C5 0.834523 0.706218 0.76115  0.3392616
 C5 0.837442 0.633947 0.72569  0.3392616
 C1 0.84636 0.571312 0.76961  -0.1412004
 C2 0.838054 0.504379 0.74164  -0.0496419
 C2 0.847114 0.446766 0.78402  -0.0496419
 C4 0.867066 0.457896 0.85271  0.2097441
 C6 0.863496 0.577785 0.83981  0.1971066
 C6 0.865316 0.646608 0.8729  0.1971066
 N1 0.378483 0.852457 0.94073  -0.3330934
 N1 0.375572 0.978373 0.88021  -0.3330934
 N1 0.621488 0.647585 0.44068  -0.3330934
 N1 0.624331 0.521664 0.38022  -0.3330934
 N1 0.621496 0.147524 0.05927  -0.3330934
 N1 0.624405 0.021608 0.11979  -0.3330934
 N1 0.378484 0.352398 0.55932  -0.3330934
 N1 0.375656 0.47832 0.61978  -0.3330934
 N1 0.878826 0.148058 0.55897  -0.3330934
 N1 0.87583 0.022536 0.62017  -0.3330934
 N1 0.121229 0.352097 0.05905  -0.3330934
 N1 0.12429 0.477791 0.1199  -0.3330934
 N1 0.121153 0.851909 0.44103  -0.3330934
 N1 0.124145 0.97742 0.37981  -0.3330934
 N1 0.878853 0.647532 0.94079  -0.3330934
 N1 0.875664 0.521651 0.88024  -0.3330934
 O1 0.395541 0.627625 0.3195  -0.6043824
 O2 0.38344 0.703613 0.40687  -0.4361584
 O1 0.429439 0.897532 0.08294  -0.6043824
 O1 0.386735 0.972545 0.16674  -0.6043824
 O1 0.257776 0.966616 0.0056  -0.6043824
 O1 0.226871 0.051743 0.08293  -0.6043824
 O2 0.321281 0.741119 0.72711  -0.4361584
 O2 0.333397 0.869575 0.66364  -0.4361584
 O3 0.55734 0.947276 0.9745  -0.9546984
 O1 0.604477 0.872304 0.81960  -0.6043824
 O2 0.616539 0.796281 0.90690  -0.4361584
 O1 0.57059 0.602467 0.58293  -0.6043824
 O1 0.613243 0.527432 0.66673  -0.6043824
 O1 0.742202 0.533365 0.50565  -0.6043824
 O1 0.773115 0.448243 0.58296  -0.6043824
 O2 0.678706 0.758852 0.22703  -0.4361584
 O2 0.666587 0.630385 0.16361  -0.4361584
 O3 0.442625 0.552699 0.47449  -0.9546984
 O1 0.604435 0.372355 0.68044  -0.6043824
 O2 0.616528 0.296364 0.59313  -0.4361584
 O1 0.570534 0.10245 0.91706  -0.6043824
 O1 0.613242 0.027435 0.83326  -0.6043824
 O1 0.7422 0.033364 0.9943  -0.6043824
 O1 0.773101 0.948227 0.91706  -0.6043824
 O2 0.678709 0.25886 0.27289  -0.4361584
 O2 0.666579 0.130407 0.33635  -0.4361584
 O3 0.442635 0.052708 0.02549  -0.9546984
 O1 0.395506 0.127668 0.18040  -0.6043824
 O2 0.383429 0.203698 0.09311  -0.4361584
 O1 0.429391 0.397514 0.41708  -0.6043824
 O1 0.386719 0.472541 0.33327  -0.6043824
 O1 0.25777 0.466614 0.4943  -0.6043824
 O1 0.226838 0.551707 0.41702  -0.6043824
 O2 0.321254 0.241136 0.7729  -0.4361584
 O2 0.333412 0.369601 0.83639  -0.4361584
 O3 0.557342 0.447287 0.52550  -0.9546984
 O1 0.89543 0.372345 0.18040  -0.6043824
 O2 0.883377 0.296256 0.09313  -0.4361584
 O1 0.929639 0.102504 0.4170  -0.6043824
 O1 0.886771 0.027396 0.33324  -0.6043824
 O1 0.757961 0.033269 0.49442  -0.6043824
 O1 0.726605 0.948079 0.41712  -0.6043824
 O2 0.821473 0.260534 0.77203  -0.4361584
 O2 0.833507 0.132553 0.83614  -0.4361584
 O3 0.057614 0.052687 0.52532  -0.9546984
 O1 0.104578 0.127671 0.68032  -0.6043824
 O2 0.116598 0.203848 0.59311  -0.4361584
 O1 0.07037 0.397456 0.91707  -0.6043824
 O1 0.11318 0.472567 0.83326  -0.6043824
 O1 0.242042 0.466726 0.99433  -0.6043824
 O1 0.273425 0.551906 0.91705  -0.6043824
 O2 0.178435 0.240161 0.27238  -0.4361584
 O2 0.166471 0.368564 0.33619  -0.4361584
 O3 0.942451 0.447204 0.02547  -0.9546984
 O1 0.104544 0.627622 0.81960  -0.6043824
 O2 0.116601 0.703713 0.90687  -0.4361584
 O1 0.07034 0.897479 0.58296  -0.6043824
 O1 0.113207 0.972588 0.66676  -0.6043824
 O1 0.242016 0.966717 0.50558  -0.6043824
 O1 0.27337 0.051905 0.58287  -0.6043824
 O2 0.178497 0.739389 0.22799  -0.4361584
 O2 0.166476 0.867359 0.1638  -0.4361584
 O3 0.942365 0.947288 0.47467  -0.9546984
 O1 0.895397 0.872324 0.31966  -0.6043824
 O2 0.883376 0.796138 0.40686  -0.4361584
 O1 0.929631 0.602505 0.08291  -0.6043824
 O1 0.886779 0.527427 0.16674  -0.6043824
 O1 0.757921 0.533221 0.00572  -0.6043824
 O1 0.726534 0.448026 0.08298  -0.6043824
 O2 0.821186 0.7588 0.72728  -0.4361584
 O2 0.833397 0.630425 0.6637  -0.4361584
 O3 0.057604 0.55266 0.97461  -0.9546984
