#======================================================================

# CRYSTAL DATA

#----------------------------------------------------------------------

data_VESTA_phase_1


_pd_phase_name                         MOF
_cell_length_a                         23.74400
_cell_length_b                         15.49600
_cell_length_c                         21.15700
_cell_angle_alpha                      78.04200
_cell_angle_beta                       79.28100
_cell_angle_gamma                      89.82100
_symmetry_space_group_name_H-M         "P 1"
_symmetry_Int_Tables_number            1

loop_
_symmetry_equiv_pos_as_xyz
   "x, y, z"

loop_
   _atom_site_label
   _atom_site_fract_x
   _atom_site_fract_y
   _atom_site_fract_z
 _atom_site_charge
 Zn1 0.483998 0.481245 0.56921  0.939143722628
 Zn1 0.983416 0.481341 0.56917  0.939143722628
 Zn1 0.016615 0.518659 0.43083  0.939143722628
 Zn1 0.516024 0.518754 0.43080  0.939143722628
 Zn2 0.249733 0.500183 0.99999  0.784613722628
 Zn2 0.750285 0.499772 0.  0.784613722628
 H1 0.157964 0.353195 0.42759  0.11255725204
 H1 0.657074 0.353421 0.42713  0.11255725204
 H1 0.224475 0.228941 0.4241  0.11255725204
 H1 0.724154 0.229899 0.42310  0.11255725204
 H1 0.133414 0.094049 0.61423  0.11255725204
 H1 0.633882 0.093648 0.61319  0.11255725204
 H1 0.069709 0.22227 0.61904  0.11255725204
 H1 0.569625 0.221139 0.61859  0.11255725204
 H1 0.144401 0.988161 0.53240  0.11255725204
 H1 0.644612 0.988665 0.53106  0.11255725204
 H1 0.271611 0.181356 0.58480  0.11255725204
 H1 0.771508 0.182027 0.58341  0.11255725204
 H1 0.335492 0.308891 0.58394  0.11255725204
 H1 0.835659 0.309002 0.58303  0.11255725204
 H1 0.423582 0.297318 0.38989  0.11255725204
 H1 0.924494 0.297027 0.3893  0.11255725204
 H1 0.362485 0.165381 0.39181  0.11255725204
 H1 0.863092 0.165649 0.39081  0.11255725204
 H1 0.364047 0.4603 0.63219  0.11255725204
 H1 0.863624 0.459928 0.63237  0.11255725204
 H1 0.301234 0.46863 0.74022  0.11255725204
 H1 0.801036 0.468157 0.74056  0.11255725204
 H1 0.455481 0.501586 0.81455  0.11255725204
 H1 0.95554 0.500853 0.8144  0.11255725204
 H1 0.011452 0.493045 0.70284  0.11255725204
 H1 0.511623 0.493735 0.70306  0.11255725204
 H1 0.332149 0.316935 0.8203  0.11255725204
 H1 0.831789 0.316467 0.82024  0.11255725204
 H1 0.257551 0.205025 0.91070  0.11255725204
 H1 0.756537 0.205018 0.91012  0.11255725204
 H1 0.122281 0.221277 0.13864  0.11255725204
 H1 0.621489 0.221291 0.13810  0.11255725204
 H1 0.101365 0.34435 0.21176  0.11255725204
 H1 0.601218 0.3439 0.21169  0.11255725204
 H1 0.342961 0.646591 0.57289  0.11255725204
 H1 0.842062 0.6468 0.57241  0.11255725204
 H1 0.275882 0.770116 0.57692  0.11255725204
 H1 0.775549 0.771051 0.57588  0.11255725204
 H1 0.366141 0.906349 0.38681  0.11255725204
 H1 0.866627 0.905971 0.38579  0.11255725204
 H1 0.430397 0.778855 0.38142  0.11255725204
 H1 0.930334 0.777754 0.38097  0.11255725204
 H1 0.355417 0.011338 0.46895  0.11255725204
 H1 0.855627 0.011842 0.46761  0.11255725204
 H1 0.228529 0.817964 0.41660  0.11255725204
 H1 0.728418 0.818635 0.4152  0.11255725204
 H1 0.16438 0.690989 0.41698  0.11255725204
 H1 0.664536 0.6911 0.41608  0.11255725204
 H1 0.075529 0.702982 0.61065  0.11255725204
 H1 0.576444 0.702689 0.61012  0.11255725204
 H1 0.13693 0.834359 0.60920  0.11255725204
 H1 0.637542 0.834626 0.60820  0.11255725204
 H1 0.13641 0.540066 0.36761  0.11255725204
 H1 0.635971 0.539697 0.36782  0.11255725204
 H1 0.198991 0.531787 0.25943  0.11255725204
 H1 0.698778 0.531316 0.25980  0.11255725204
 H1 0.044477 0.499099 0.18553  0.11255725204
 H1 0.544523 0.498347 0.18549  0.11255725204
 H1 0.488388 0.506251 0.29697  0.11255725204
 H1 0.988574 0.506952 0.29716  0.11255725204
 H1 0.168221 0.683459 0.17977  0.11255725204
 H1 0.667864 0.683001 0.1796  0.11255725204
 H1 0.243468 0.794921 0.08989  0.11255725204
 H1 0.742467 0.794894 0.08930  0.11255725204
 H1 0.378528 0.778647 0.86190  0.11255725204
 H1 0.877715 0.77864 0.86138  0.11255725204
 H1 0.398792 0.656022 0.78833  0.11255725204
 H1 0.898646 0.655589 0.78825  0.11255725204
 C1 0.069045 0.369242 0.52252  0.697388722628
 C1 0.56821 0.368265 0.52257  0.697388722628
 C2 0.109905 0.295373 0.52352  -0.0240872773723
 C2 0.609357 0.294827 0.52307  -0.0240872773723
 C3 0.153803 0.296856 0.46881  -0.137061277372
 C3 0.653203 0.296939 0.46821  -0.137061277372
 C3 0.190486 0.227196 0.46685  -0.137061277372
 C3 0.690213 0.227699 0.46594  -0.137061277372
 C2 0.18313 0.152492 0.5186  -0.0240872773723
 C2 0.683215 0.152808 0.51756  -0.0240872773723
 C3 0.139268 0.151409 0.57349  -0.137061277372
 C3 0.63943 0.15115 0.57258  -0.137061277372
 C3 0.103587 0.222692 0.5764  -0.137061277372
 C3 0.603435 0.221998 0.57584  -0.137061277372
 C2 0.218767 0.075007 0.51230  -0.0240872773723
 C2 0.718976 0.075522 0.51096  -0.0240872773723
 C3 0.191158 0.992599 0.52046  -0.137061277372
 C3 0.691366 0.993117 0.5190  -0.137061277372
 C2 0.279184 0.082186 0.49252  -0.0240872773723
 C2 0.77939 0.082723 0.49116  -0.0240872773723
 C2 0.31303 0.163924 0.48863  -0.0240872773723
 C2 0.813272 0.164377 0.48742  -0.0240872773723
 C3 0.304982 0.206521 0.5420  -0.137061277372
 C3 0.805098 0.206976 0.54082  -0.137061277372
 C3 0.340228 0.278117 0.5415  -0.137061277372
 C3 0.84051 0.278262 0.54057  -0.137061277372
 C2 0.383295 0.311183 0.48676  -0.0240872773723
 C2 0.883894 0.311015 0.48609  -0.0240872773723
 C3 0.390272 0.270996 0.43243  -0.137061277372
 C3 0.890964 0.27091 0.43171  -0.137061277372
 C3 0.356104 0.197445 0.43379  -0.137061277372
 C3 0.856617 0.197673 0.4328  -0.137061277372
 C1 0.423052 0.385329 0.48830  0.697388722628
 C1 0.923838 0.384795 0.48787  0.697388722628
 C4 0.382023 0.469269 0.67428  0.188963722628
 C4 0.88171 0.46875 0.67443  0.188963722628
 C3 0.347756 0.47373 0.73423  -0.137061277372
 C3 0.847568 0.473183 0.73444  -0.137061277372
 C2 0.373376 0.485616 0.78659  -0.0240872773723
 C2 0.873343 0.484973 0.78671  -0.0240872773723
 C3 0.433436 0.492822 0.77540  -0.137061277372
 C3 0.933404 0.492139 0.77538  -0.137061277372
 C4 0.464903 0.487879 0.71392  0.188963722628
 C4 0.964744 0.487219 0.71384  0.188963722628
 C2 0.337425 0.489869 0.85149  -0.0240872773723
 C2 0.837481 0.489227 0.8516  -0.0240872773723
 C5 0.304518 0.413306 0.88587  0.192234972628
 C5 0.804448 0.412732 0.88594  0.192234972628
 C3 0.305514 0.330363 0.86449  -0.137061277372
 C3 0.805149 0.329945 0.86437  -0.137061277372
 C3 0.267618 0.273297 0.91056  -0.137061277372
 C3 0.766928 0.273105 0.91019  -0.137061277372
 C5 0.243593 0.320331 0.96091  0.192234972628
 C5 0.74303 0.32007 0.96063  0.192234972628
 C2 0.202437 0.284637 0.01710  -0.0240872773723
 C2 0.701633 0.284583 0.01664  -0.0240872773723
 C2 0.177855 0.194524 0.02101  -0.0240872773723
 C2 0.676736 0.194598 0.02068  -0.0240872773723
 C6 0.127259 0.186264 0.99742  0.146315722628
 C6 0.625773 0.186228 0.99776  0.146315722628
 C6 0.102433 0.104525 0.99849  0.146315722628
 C6 0.600236 0.104463 0.  0.146315722628
 C6 0.128275 0.027307 0.02395  0.146315722628
 C6 0.626423 0.027446 0.02536  0.146315722628
 C6 0.178867 0.033274 0.04778  0.146315722628
 C6 0.677497 0.033517 0.04818  0.146315722628
 C6 0.202896 0.11612 0.04609  0.146315722628
 C6 0.701735 0.116282 0.04603  0.146315722628
 C5 0.179658 0.328194 0.0676  0.192234972628
 C5 0.679182 0.328055 0.06736  0.192234972628
 C3 0.139429 0.288761 0.12659  -0.137061277372
 C3 0.638898 0.288613 0.12624  -0.137061277372
 C3 0.128662 0.351479 0.1636  -0.137061277372
 C3 0.628459 0.351086 0.16356  -0.137061277372
 C5 0.338395 0.570035 0.87278  0.192234972628
 C5 0.838422 0.569494 0.8728  0.192234972628
 C1 0.431814 0.631735 0.47744  0.697388722628
 C1 0.930985 0.630763 0.47748  0.697388722628
 C2 0.390671 0.705177 0.47694  -0.0240872773723
 C2 0.890128 0.704634 0.47649  -0.0240872773723
 C3 0.346829 0.703071 0.53181  -0.137061277372
 C3 0.846226 0.703144 0.53119  -0.137061277372
 C3 0.309819 0.77231 0.53408  -0.137061277372
 C3 0.809542 0.772802 0.53316  -0.137061277372
 C2 0.316814 0.847196 0.48245  -0.0240872773723
 C2 0.816901 0.847512 0.48136  -0.0240872773723
 C3 0.360596 0.84885 0.42743  -0.137061277372
 C3 0.860769 0.848605 0.42652  -0.137061277372
 C3 0.39659 0.778002 0.4241  -0.137061277372
 C3 0.896451 0.777324 0.42358  -0.137061277372
 C2 0.281053 0.924482 0.48905  -0.0240872773723
 C2 0.781262 0.924995 0.48771  -0.0240872773723
 C3 0.308662 0.006885 0.48092  -0.137061277372
 C3 0.808871 0.007404 0.4795  -0.137061277372
 C2 0.220639 0.917279 0.50885  -0.0240872773723
 C2 0.720845 0.917815 0.50749  -0.0240872773723
 C2 0.186757 0.835625 0.51259  -0.0240872773723
 C2 0.686998 0.836077 0.51138  -0.0240872773723
 C3 0.194936 0.79302 0.45919  -0.137061277372
 C3 0.695046 0.793474 0.45799  -0.137061277372
 C3 0.159524 0.721734 0.45944  -0.137061277372
 C3 0.6598 0.721877 0.45851  -0.137061277372
 C2 0.116135 0.688986 0.51391  -0.0240872773723
 C2 0.616731 0.688815 0.51325  -0.0240872773723
 C3 0.109062 0.729095 0.56829  -0.137061277372
 C3 0.609754 0.729006 0.56758  -0.137061277372
 C3 0.143408 0.802332 0.56720  -0.137061277372
 C3 0.643923 0.802559 0.56622  -0.137061277372
 C1 0.07619 0.615206 0.51213  0.697388722628
 C1 0.576972 0.614669 0.51171  0.697388722628
 C4 0.11832 0.531229 0.3255  0.188963722628
 C4 0.617992 0.530712 0.32573  0.188963722628
 C3 0.152458 0.526768 0.26555  -0.137061277372
 C3 0.652256 0.526221 0.26579  -0.137061277372
 C2 0.126679 0.514964 0.21329  -0.0240872773723
 C2 0.626631 0.514317 0.21344  -0.0240872773723
 C3 0.066618 0.507817 0.22462  -0.137061277372
 C3 0.566571 0.507121 0.22463  -0.137061277372
 C4 0.035282 0.512763 0.28616  0.188963722628
 C4 0.535108 0.512094 0.28611  0.188963722628
 C2 0.16254 0.510697 0.14835  -0.0240872773723
 C2 0.66258 0.510056 0.14854  -0.0240872773723
 C5 0.195568 0.5872 0.11406  0.192234972628
 C5 0.695488 0.586613 0.1141  0.192234972628
 C3 0.194862 0.669986 0.13564  -0.137061277372
 C3 0.694497 0.669564 0.13553  -0.137061277372
 C3 0.23308 0.726835 0.08982  -0.137061277372
 C3 0.732393 0.72662 0.08946  -0.137061277372
 C5 0.256985 0.67988 0.03938  0.192234972628
 C5 0.756413 0.679568 0.03911  0.192234972628
 C2 0.298382 0.715381 0.98337  -0.0240872773723
 C2 0.797562 0.715239 0.98292  -0.0240872773723
 C2 0.323279 0.805373 0.97932  -0.0240872773723
 C2 0.822119 0.805373 0.97893  -0.0240872773723
 C6 0.374243 0.813755 0.00224  0.146315722628
 C6 0.872741 0.813752 0.00245  0.146315722628
 C6 0.399782 0.895522 0.99999  0.146315722628
 C6 0.897687 0.89555 0.00107  0.146315722628
 C6 0.373597 0.972539 0.97464  0.146315722628
 C6 0.871983 0.972605 0.97500  0.146315722628
 C6 0.322524 0.966464 0.95182  0.146315722628
 C6 0.821146 0.966508 0.95178  0.146315722628
 C6 0.298284 0.883697 0.95397  0.146315722628
 C6 0.797024 0.883697 0.95377  0.146315722628
 C5 0.320832 0.671897 0.93265  0.192234972628
 C5 0.820347 0.671698 0.93235  0.192234972628
 C3 0.361116 0.711325 0.87377  -0.137061277372
 C3 0.860572 0.711154 0.87343  -0.137061277372
 C3 0.371552 0.648843 0.83646  -0.137061277372
 C3 0.871348 0.648447 0.83635  -0.137061277372
 C5 0.161597 0.430423 0.12720  0.192234972628
 C5 0.661613 0.429898 0.1272  0.192234972628
 N1 0.439738 0.475987 0.66419  -0.371682944039
 N1 0.939427 0.475411 0.66421  -0.371682944039
 N1 0.266927 0.40531 0.94518  -0.371682944039
 N1 0.766781 0.404797 0.94519  -0.371682944039
 N1 0.192714 0.414408 0.06909  -0.371682944039
 N1 0.692642 0.414026 0.06903  -0.371682944039
 N1 0.060602 0.524581 0.33579  -0.371682944039
 N1 0.560278 0.524005 0.33583  -0.371682944039
 N1 0.233237 0.595148 0.05481  -0.371682944039
 N1 0.733078 0.594595 0.05486  -0.371682944039
 N1 0.307368 0.585922 0.93098  -0.371682944039
 N1 0.807303 0.585491 0.93092  -0.371682944039
 O1 0.039419 0.380041 0.57698  -0.611158777372
 O1 0.538573 0.378313 0.5772  -0.611158777372
 O1 0.066731 0.415353 0.46588  -0.611158777372
 O1 0.565652 0.414903 0.46618  -0.611158777372
 O1 0.452451 0.426502 0.43364  -0.611158777372
 O1 0.953421 0.425899 0.43334  -0.611158777372
 O1 0.424946 0.400165 0.54489  -0.611158777372
 O1 0.925682 0.399433 0.54455  -0.611158777372
 O1 0.46145 0.621686 0.42275  -0.611158777372
 O1 0.960614 0.619971 0.42302  -0.611158777372
 O1 0.43437 0.585093 0.5338  -0.611158777372
 O1 0.933294 0.584642 0.53412  -0.611158777372
 O1 0.046606 0.574104 0.56666  -0.611158777372
 O1 0.547571 0.573499 0.56638  -0.611158777372
 O1 0.074348 0.600568 0.45545  -0.611158777372
 O1 0.575077 0.599834 0.45512  -0.611158777372
 F1 0.101209 0.259335 0.97221  -0.132334277372
 F1 0.599943 0.259354 0.97223  -0.132334277372
 F1 0.054007 0.099788 0.97494  -0.132334277372
 F1 0.550956 0.099764 0.97789  -0.132334277372
 F1 0.104176 0.948486 0.02517  -0.132334277372
 F1 0.60253 0.948146 0.02777  -0.132334277372
 F1 0.20476 0.959344 0.07212  -0.132334277372
 F1 0.703494 0.959475 0.07215  -0.132334277372
 F1 0.251884 0.118668 0.06941  -0.132334277372
 F1 0.750715 0.118748 0.06936  -0.132334277372
 F1 0.400078 0.740635 0.02777  -0.132334277372
 F1 0.898786 0.740721 0.02780  -0.132334277372
 F1 0.449061 0.900226 0.02211  -0.132334277372
 F1 0.945961 0.900252 0.02495  -0.132334277372
 F1 0.397489 0.05184 0.97223  -0.132334277372
 F1 0.896174 0.051811 0.97230  -0.132334277372
 F1 0.296528 0.040509 0.92786  -0.132334277372
 F1 0.795223 0.040571 0.92778  -0.132334277372
 F1 0.249303 0.881242 0.9306  -0.132334277372
 F1 0.748005 0.881218 0.93057  -0.132334277372
