#======================================================================

# CRYSTAL DATA

#----------------------------------------------------------------------

data_VESTA_phase_1


_pd_phase_name                         MOF
_cell_length_a                         10.91100
_cell_length_b                         23.31000
_cell_length_c                         13.33000
_cell_angle_alpha                      90.25100
_cell_angle_beta                       95.52000
_cell_angle_gamma                      90.98800
_symmetry_space_group_name_H-M         "P 1"
_symmetry_Int_Tables_number            1

loop_
_symmetry_equiv_pos_as_xyz
   "x, y, z"

loop_
   _atom_site_label
   _atom_site_fract_x
   _atom_site_fract_y
   _atom_site_fract_z
 _atom_site_charge
 Li1 0.344187 0.491497 0.93530  0.865178214286
 Li1 0.344191 0.991505 0.9353  0.865178214286
 Li1 0.844172 0.491497 0.93530  0.865178214286
 Li1 0.844176 0.991504 0.93530  0.865178214286
 Li1 0.155207 0.241717 0.56174  0.865178214286
 Li1 0.15521 0.741725 0.56174  0.865178214286
 Li1 0.655193 0.241716 0.56174  0.865178214286
 Li1 0.655196 0.741724 0.56174  0.865178214286
 Li1 0.155667 0.00851 0.06467  0.865178214286
 Li1 0.155666 0.508517 0.06467  0.865178214286
 Li1 0.655652 0.00851 0.06467  0.865178214286
 Li1 0.655652 0.508517 0.06467  0.865178214286
 Li1 0.34473 0.258285 0.43826  0.865178214286
 Li1 0.344733 0.758293 0.43826  0.865178214286
 Li1 0.844716 0.258286 0.43826  0.865178214286
 Li1 0.844718 0.758293 0.43826  0.865178214286
 H1 0.045657 0.089089 0.64376  0.0940619642857
 H1 0.045658 0.589096 0.64376  0.0940619642857
 H1 0.545642 0.089089 0.64376  0.0940619642857
 H1 0.545643 0.589096 0.64376  0.0940619642857
 H1 0.504699 0.012658 0.76875  0.0940619642857
 H1 0.5047 0.512665 0.76875  0.0940619642857
 H1 0.0 0.012657 0.76875  0.0940619642857
 H1 0.0 0.512665 0.76875  0.0940619642857
 H1 0.202996 0.098483 0.85587  0.0940619642857
 H1 0.202996 0.59849 0.85587  0.0940619642857
 H1 0.702981 0.098481 0.85587  0.0940619642857
 H1 0.702981 0.598489 0.85587  0.0940619642857
 H1 0.225659 0.175736 0.72894  0.0940619642857
 H1 0.225658 0.675742 0.72894  0.0940619642857
 H1 0.725642 0.175733 0.72894  0.0940619642857
 H1 0.725643 0.675741 0.72894  0.0940619642857
 H1 0.290636 0.36592 0.88464  0.0940619642857
 H1 0.29064 0.865926 0.8846  0.0940619642857
 H1 0.790621 0.365918 0.88464  0.0940619642857
 H1 0.790625 0.865925 0.88465  0.0940619642857
 H1 0.31174 0.289783 0.75440  0.0940619642857
 H1 0.311744 0.78979 0.75440  0.0940619642857
 H1 0.811726 0.289781 0.7544  0.0940619642857
 H1 0.81173 0.78979 0.7544  0.0940619642857
 H1 0.472413 0.326556 0.60488  0.0940619642857
 H1 0.472417 0.826564 0.6048  0.0940619642857
 H1 0.972396 0.326556 0.6048  0.0940619642857
 H1 0.9724 0.826564 0.6048  0.0940619642857
 H1 0.431979 0.400364 0.73480  0.0940619642857
 H1 0.431983 0.900371 0.7348  0.0940619642857
 H1 0.931964 0.400365 0.73480  0.0940619642857
 H1 0.931968 0.900372 0.73481  0.0940619642857
 H1 0.454261 0.410921 0.35628  0.0940619642857
 H1 0.454262 0.910928 0.35628  0.0940619642857
 H1 0.954245 0.41092 0.35628  0.0940619642857
 H1 0.954247 0.910927 0.35628  0.0940619642857
 H1 0.995152 0.487352 0.23128  0.0940619642857
 H1 0.995157 0.98736 0.23128  0.0940619642857
 H1 0.495139 0.487353 0.23128  0.0940619642857
 H1 0.495143 0.98736 0.23128  0.0940619642857
 H1 0.29689 0.401561 0.1441  0.0940619642857
 H1 0.296893 0.901568 0.1441  0.0940619642857
 H1 0.796874 0.401561 0.14413  0.0940619642857
 H1 0.796878 0.901567 0.14413  0.0940619642857
 H1 0.27429 0.32431 0.27108  0.0940619642857
 H1 0.274291 0.824316 0.27108  0.0940619642857
 H1 0.774276 0.32431 0.27108  0.0940619642857
 H1 0.774276 0.824315 0.27108  0.0940619642857
 H1 0.209198 0.134083 0.11537  0.0940619642857
 H1 0.209199 0.634091 0.11537  0.0940619642857
 H1 0.709184 0.134084 0.11537  0.0940619642857
 H1 0.709184 0.634092 0.11537  0.0940619642857
 H1 0.18813 0.210212 0.24563  0.0940619642857
 H1 0.18813 0.710219 0.24563  0.0940619642857
 H1 0.688116 0.210212 0.24563  0.0940619642857
 H1 0.688116 0.71022 0.24563  0.0940619642857
 H1 0.02748 0.173427 0.39510  0.0940619642857
 H1 0.02748 0.673433 0.39510  0.0940619642857
 H1 0.527465 0.173427 0.39510  0.0940619642857
 H1 0.527466 0.673434 0.39510  0.0940619642857
 H1 0.067881 0.099627 0.26516  0.0940619642857
 H1 0.067881 0.599635 0.26516  0.0940619642857
 H1 0.567866 0.099627 0.26516  0.0940619642857
 H1 0.567867 0.599635 0.26516  0.0940619642857
 C1 0.415486 0.185087 0.60234  0.750973214286
 C1 0.415485 0.685091 0.60234  0.750973214286
 C1 0.915469 0.185084 0.60234  0.750973214286
 C1 0.915469 0.68509 0.6023  0.750973214286
 C2 0.389268 0.138633 0.67676  -0.0284067857143
 C2 0.389268 0.638639 0.67676  -0.0284067857143
 C2 0.889253 0.138631 0.67676  -0.0284067857143
 C2 0.889254 0.638638 0.67676  -0.0284067857143
 C3 0.467639 0.09175 0.68861  -0.165699285714
 C3 0.467641 0.591757 0.68861  -0.165699285714
 C3 0.967626 0.091749 0.68861  -0.165699285714
 C3 0.967627 0.591757 0.68861  -0.165699285714
 C4 0.445234 0.049686 0.75841  0.196630714286
 C4 0.445234 0.549693 0.75841  0.196630714286
 C4 0.94522 0.049685 0.75841  0.196630714286
 C4 0.94522 0.549692 0.75841  0.196630714286
 C4 0.277216 0.097366 0.80655  0.196630714286
 C4 0.277216 0.597373 0.80655  0.196630714286
 C4 0.777201 0.097364 0.80655  0.196630714286
 C4 0.777201 0.597372 0.80655  0.196630714286
 C3 0.290858 0.140796 0.73662  -0.165699285714
 C3 0.290859 0.640803 0.73662  -0.165699285714
 C3 0.790843 0.140795 0.73662  -0.165699285714
 C3 0.790845 0.640802 0.73662  -0.165699285714
 C1 0.083909 0.43265 0.89995  0.750973214286
 C1 0.083913 0.932656 0.89995  0.750973214286
 C1 0.583894 0.432648 0.89995  0.750973214286
 C1 0.583898 0.932655 0.8999  0.750973214286
 C2 0.107644 0.38847 0.82085  -0.0284067857143
 C2 0.107648 0.888477 0.8208  -0.0284067857143
 C2 0.60763 0.388469 0.82085  -0.0284067857143
 C2 0.607634 0.888477 0.82086  -0.0284067857143
 C3 0.21651 0.357315 0.82541  -0.165699285714
 C3 0.216514 0.857322 0.8254  -0.165699285714
 C3 0.716496 0.357313 0.82541  -0.165699285714
 C3 0.7165 0.857321 0.8254  -0.165699285714
 C4 0.22888 0.315491 0.75215  0.196630714286
 C4 0.228884 0.815498 0.75215  0.196630714286
 C4 0.728866 0.315489 0.75215  0.196630714286
 C4 0.728871 0.815497 0.75215  0.196630714286
 C4 0.039531 0.335714 0.66922  0.196630714286
 C4 0.039536 0.835722 0.66922  0.196630714286
 C4 0.539519 0.335713 0.66922  0.196630714286
 C4 0.539523 0.835721 0.66922  0.196630714286
 C3 0.018049 0.377118 0.7405  -0.165699285714
 C3 0.018053 0.877125 0.74056  -0.165699285714
 C3 0.518036 0.377118 0.7405  -0.165699285714
 C3 0.51804 0.877125 0.74056  -0.165699285714
 C1 0.084461 0.314931 0.39768  0.750973214286
 C1 0.084461 0.814936 0.3976  0.750973214286
 C1 0.584447 0.314931 0.39768  0.750973214286
 C1 0.584448 0.814937 0.39768  0.750973214286
 C2 0.110664 0.361393 0.32327  -0.0284067857143
 C2 0.110665 0.861399 0.3232  -0.0284067857143
 C2 0.61065 0.361393 0.32327  -0.0284067857143
 C2 0.610652 0.861399 0.3232  -0.0284067857143
 C3 0.032269 0.408267 0.31142  -0.165699285714
 C3 0.032272 0.908274 0.31142  -0.165699285714
 C3 0.532255 0.408267 0.31142  -0.165699285714
 C3 0.532258 0.908274 0.31142  -0.165699285714
 C4 0.054641 0.450332 0.2416  0.196630714286
 C4 0.054645 0.950339 0.24162  0.196630714286
 C4 0.554628 0.450332 0.24161  0.196630714286
 C4 0.554631 0.950339 0.2416  0.196630714286
 C4 0.222677 0.40267 0.19347  0.196630714286
 C4 0.22268 0.902677 0.19347  0.196630714286
 C4 0.722663 0.40267 0.1934  0.196630714286
 C4 0.722665 0.902677 0.1934  0.196630714286
 C3 0.209068 0.35924 0.26340  -0.165699285714
 C3 0.209071 0.859247 0.26340  -0.165699285714
 C3 0.709054 0.35924 0.26340  -0.165699285714
 C3 0.709056 0.859247 0.26340  -0.165699285714
 C1 0.415952 0.067354 0.10002  0.750973214286
 C1 0.415952 0.567362 0.10002  0.750973214286
 C1 0.915937 0.067355 0.10002  0.750973214286
 C1 0.915937 0.567364 0.10002  0.750973214286
 C2 0.392208 0.111528 0.17913  -0.0284067857143
 C2 0.392208 0.611536 0.17913  -0.0284067857143
 C2 0.892194 0.111528 0.17913  -0.0284067857143
 C2 0.892193 0.611536 0.17913  -0.0284067857143
 C3 0.283341 0.142683 0.17459  -0.165699285714
 C3 0.28334 0.64269 0.17459  -0.165699285714
 C3 0.783326 0.142683 0.17459  -0.165699285714
 C3 0.783325 0.642691 0.17459  -0.165699285714
 C4 0.270987 0.184504 0.24787  0.196630714286
 C4 0.270988 0.684511 0.24787  0.196630714286
 C4 0.770973 0.184504 0.24787  0.196630714286
 C4 0.770973 0.684511 0.24787  0.196630714286
 C4 0.460347 0.164275 0.33077  0.196630714286
 C4 0.460347 0.664282 0.33077  0.196630714286
 C4 0.960332 0.164275 0.33077  0.196630714286
 C4 0.960332 0.664281 0.33077  0.196630714286
 C3 0.481813 0.122875 0.25942  -0.165699285714
 C3 0.481813 0.622882 0.25942  -0.165699285714
 C3 0.981798 0.122875 0.25942  -0.165699285714
 C3 0.981797 0.622882 0.25942  -0.165699285714
 N1 0.352278 0.051994 0.81805  -0.493491785714
 N1 0.352274 0.552 0.81805  -0.493491785714
 N1 0.85226 0.051992 0.8180  -0.493491785714
 N1 0.852259 0.551998 0.81804  -0.493491785714
 N1 0.142881 0.304314 0.67457  -0.493491785714
 N1 0.142885 0.804321 0.67457  -0.493491785714
 N1 0.642867 0.304312 0.67457  -0.493491785714
 N1 0.64287 0.80432 0.67457  -0.493491785714
 N1 0.147591 0.448034 0.18197  -0.493491785714
 N1 0.147593 0.94804 0.18197  -0.493491785714
 N1 0.647578 0.448034 0.18197  -0.493491785714
 N1 0.64758 0.94804 0.18197  -0.493491785714
 N1 0.357001 0.195677 0.32544  -0.493491785714
 N1 0.357003 0.695684 0.32544  -0.493491785714
 N1 0.856987 0.195677 0.32544  -0.493491785714
 N1 0.856989 0.695685 0.32544  -0.493491785714
 O1 0.023806 0.187955 0.57665  -0.724196785714
 O1 0.023809 0.687963 0.57666  -0.724196785714
 O1 0.523789 0.187953 0.57664  -0.724196785714
 O1 0.523794 0.687962 0.57665  -0.724196785714
 O2 0.327622 0.217818 0.57028  -0.808166785714
 O2 0.327626 0.717827 0.57028  -0.808166785714
 O2 0.827609 0.21782 0.57028  -0.808166785714
 O2 0.827612 0.717828 0.57028  -0.808166785714
 O1 0.473059 0.4398 0.9158  -0.724196785714
 O1 0.473062 0.939807 0.91584  -0.724196785714
 O1 0.973045 0.439799 0.91584  -0.724196785714
 O1 0.973049 0.939806 0.91584  -0.724196785714
 O2 0.176673 0.459611 0.94444  -0.808166785714
 O2 0.176677 0.959619 0.94444  -0.808166785714
 O2 0.676658 0.459611 0.94444  -0.808166785714
 O2 0.676662 0.959619 0.94444  -0.808166785714
 O1 0.476127 0.312045 0.42334  -0.724196785714
 O1 0.476131 0.812053 0.42334  -0.724196785714
 O1 0.976114 0.312045 0.42334  -0.724196785714
 O1 0.976117 0.812053 0.42334  -0.724196785714
 O2 0.172326 0.282198 0.42973  -0.808166785714
 O2 0.172329 0.782205 0.42973  -0.808166785714
 O2 0.672312 0.282197 0.42973  -0.808166785714
 O2 0.672315 0.782205 0.42973  -0.808166785714
 O1 0.026803 0.060211 0.08413  -0.724196785714
 O1 0.026804 0.560217 0.08413  -0.724196785714
 O1 0.526789 0.060212 0.08413  -0.724196785714
 O1 0.526789 0.560218 0.08413  -0.724196785714
 O2 0.323196 0.040391 0.05552  -0.808166785714
 O2 0.323196 0.540398 0.05552  -0.808166785714
 O2 0.823182 0.040391 0.05552  -0.808166785714
 O2 0.823182 0.540398 0.05552  -0.808166785714
