#======================================================================

# CRYSTAL DATA

#----------------------------------------------------------------------

data_VESTA_phase_1


_pd_phase_name                         MOF
_cell_length_a                         16.46100
_cell_length_b                         15.12700
_cell_length_c                         22.29100
_cell_angle_alpha                      90.00800
_cell_angle_beta                       95.73400
_cell_angle_gamma                      90.00900
_symmetry_space_group_name_H-M         "P 1"
_symmetry_Int_Tables_number            1

loop_
_symmetry_equiv_pos_as_xyz
   "x, y, z"

loop_
   _atom_site_label
   _atom_site_fract_x
   _atom_site_fract_y
   _atom_site_fract_z
 _atom_site_charge
 Zn1 0.163051 0.081509 0.13514  1.04230153846
 Zn1 0.663048 0.081508 0.13514  1.04230153846
 Zn2 0.264203 0.229474 0.2394  0.921941538462
 Zn2 0.764198 0.229476 0.2394  0.921941538462
 Zn1 0.086952 0.581496 0.3649  1.04230153846
 Zn1 0.586948 0.581496 0.3649  1.04230153846
 Zn2 0.485863 0.729473 0.26056  0.921941538462
 Zn2 0.985857 0.729477 0.26056  0.921941538462
 Zn1 0.336947 0.918476 0.86487  1.04230153846
 Zn1 0.836944 0.918477 0.86487  1.04230153846
 Zn2 0.235797 0.770512 0.76055  0.921941538462
 Zn2 0.735793 0.770511 0.76055  0.921941538462
 Zn1 0.413047 0.41849 0.63510  1.04230153846
 Zn1 0.913042 0.418489 0.63510  1.04230153846
 Zn2 0.014138 0.270512 0.73944  0.921941538462
 Zn2 0.514133 0.270512 0.73944  0.921941538462
 H1 0.174732 0.872482 0.24572  0.101794395604
 H1 0.674726 0.872491 0.24572  0.101794395604
 H1 0.379812 0.881963 0.42371  0.101794395604
 H1 0.879809 0.881966 0.4237  0.101794395604
 H1 0.359184 0.013569 0.35707  0.101794395604
 H1 0.859184 0.013573 0.35707  0.101794395604
 H1 0.450074 0.580828 0.46917  0.101794395604
 H1 0.950072 0.58083 0.46917  0.101794395604
 H1 0.228861 0.647598 0.54562  0.101794395604
 H1 0.728858 0.647595 0.54562  0.101794395604
 H1 0.195629 0.757877 0.46396  0.101794395604
 H1 0.695627 0.75788 0.46397  0.101794395604
 H1 0.194546 0.358523 0.13267  0.101794395604
 H1 0.694527 0.358518 0.13267  0.101794395604
 H1 0.16214 0.52066 0.12302  0.101794395604
 H1 0.662119 0.520654 0.12303  0.101794395604
 H1 0.207998 0.620546 0.21025  0.101794395604
 H1 0.707985 0.620545 0.2102  0.101794395604
 H1 0.285498 0.556687 0.30107  0.101794395604
 H1 0.78549 0.55669 0.30107  0.101794395604
 H1 0.373182 0.497267 0.36286  0.101794395604
 H1 0.873174 0.49727 0.36286  0.101794395604
 H1 0.451181 0.414797 0.44582  0.101794395604
 H1 0.951182 0.4148 0.44582  0.101794395604
 H1 0.448453 0.248459 0.44389  0.101794395604
 H1 0.948454 0.248462 0.44388  0.101794395604
 H1 0.364147 0.172873 0.35762  0.101794395604
 H1 0.864141 0.172875 0.35762  0.101794395604
 H1 0.07532 0.372547 0.25431  0.101794395604
 H1 0.575318 0.372541 0.25431  0.101794395604
 H1 0.370051 0.381686 0.0764  0.101794395604
 H1 0.870038 0.381679 0.07643  0.101794395604
 H1 0.390572 0.513285 0.14308  0.101794395604
 H1 0.890556 0.51328 0.14309  0.101794395604
 H1 0.299933 0.080695 0.0308  0.101794395604
 H1 0.799936 0.080691 0.03082  0.101794395604
 H1 0.021149 0.147571 0.9544  0.101794395604
 H1 0.521123 0.147579 0.95440  0.101794395604
 H1 0.054437 0.257786 0.03611  0.101794395604
 H1 0.554422 0.25779 0.03610  0.101794395604
 H1 0.055662 0.858637 0.36736  0.101794395604
 H1 0.555644 0.858618 0.36737  0.101794395604
 H1 0.087359 0.020952 0.3772  0.101794395604
 H1 0.587354 0.020929 0.37723  0.101794395604
 H1 0.040949 0.120875 0.29015  0.101794395604
 H1 0.54096 0.120862 0.29017  0.101794395604
 H1 0.463723 0.056875 0.19928  0.101794395604
 H1 0.9637 0.056876 0.19927  0.101794395604
 H1 0.376587 0.997085 0.13726  0.101794395604
 H1 0.876591 0.997079 0.13724  0.101794395604
 H1 0.298896 0.914436 0.05421  0.101794395604
 H1 0.798903 0.914424 0.05420  0.101794395604
 H1 0.302081 0.748098 0.05605  0.101794395604
 H1 0.802066 0.748085 0.05605  0.101794395604
 H1 0.386457 0.672715 0.14235  0.101794395604
 H1 0.886428 0.672709 0.14236  0.101794395604
 H1 0.325266 0.127508 0.754  0.101794395604
 H1 0.825261 0.127507 0.75429  0.101794395604
 H1 0.1202 0.118019 0.57629  0.101794395604
 H1 0.620197 0.118017 0.57629  0.101794395604
 H1 0.14083 0.986411 0.6429  0.101794395604
 H1 0.640826 0.98641 0.64293  0.101794395604
 H1 0.049921 0.419149 0.53083  0.101794395604
 H1 0.549916 0.41915 0.53083  0.101794395604
 H1 0.271144 0.352395 0.454  0.101794395604
 H1 0.771138 0.352391 0.45439  0.101794395604
 H1 0.304378 0.242119 0.53605  0.101794395604
 H1 0.80437 0.242114 0.53605  0.101794395604
 H1 0.305466 0.641478 0.86734  0.101794395604
 H1 0.805455 0.641474 0.86734  0.101794395604
 H1 0.337883 0.479344 0.87699  0.101794395604
 H1 0.837864 0.479339 0.87699  0.101794395604
 H1 0.292023 0.379449 0.78976  0.101794395604
 H1 0.792003 0.379444 0.78976  0.101794395604
 H1 0.214516 0.443298 0.69895  0.101794395604
 H1 0.714502 0.443295 0.69895  0.101794395604
 H1 0.12683 0.502713 0.63715  0.101794395604
 H1 0.62684 0.502716 0.63714  0.101794395604
 H1 0.048827 0.585178 0.55419  0.101794395604
 H1 0.548844 0.585185 0.55417  0.101794395604
 H1 0.051555 0.751517 0.55612  0.101794395604
 H1 0.551562 0.751523 0.55611  0.101794395604
 H1 0.135862 0.827109 0.64238  0.101794395604
 H1 0.635857 0.827111 0.64238  0.101794395604
 H1 0.424679 0.627448 0.74570  0.101794395604
 H1 0.924668 0.627443 0.74570  0.101794395604
 H1 0.129956 0.618307 0.92358  0.101794395604
 H1 0.629942 0.618301 0.92359  0.101794395604
 H1 0.109437 0.486708 0.85692  0.101794395604
 H1 0.609423 0.486703 0.8569  0.101794395604
 H1 0.200061 0.919293 0.96919  0.101794395604
 H1 0.700075 0.919287 0.96918  0.101794395604
 H1 0.478889 0.85241 0.04561  0.101794395604
 H1 0.978854 0.852407 0.04560  0.101794395604
 H1 0.445581 0.742201 0.96392  0.101794395604
 H1 0.945562 0.742196 0.9639  0.101794395604
 H1 0.444338 0.141355 0.63265  0.101794395604
 H1 0.944331 0.14136 0.63265  0.101794395604
 H1 0.412666 0.979035 0.62279  0.101794395604
 H1 0.912654 0.979041 0.6227  0.101794395604
 H1 0.459094 0.879109 0.70985  0.101794395604
 H1 0.959077 0.879113 0.70985  0.101794395604
 H1 0.036315 0.943113 0.80073  0.101794395604
 H1 0.536321 0.943112 0.80073  0.101794395604
 H1 0.12342 0.002916 0.86276  0.101794395604
 H1 0.623411 0.002919 0.86277  0.101794395604
 H1 0.201114 0.085573 0.94580  0.101794395604
 H1 0.701103 0.085578 0.94581  0.101794395604
 H1 0.197936 0.251912 0.94395  0.101794395604
 H1 0.697935 0.251917 0.94395  0.101794395604
 H1 0.113558 0.327285 0.85765  0.101794395604
 H1 0.613564 0.327287 0.85765  0.101794395604
 C1 0.251995 0.030646 0.25629  0.684211538462
 C1 0.751993 0.030651 0.25629  0.684211538462
 C2 0.265879 0.951557 0.29663  -0.0854984615385
 C2 0.765875 0.951562 0.29663  -0.0854984615385
 C3 0.219462 0.875023 0.28507  -0.0683767948718
 C3 0.719458 0.875028 0.28508  -0.0683767948718
 C2 0.227159 0.802034 0.32398  -0.0854984615385
 C2 0.727154 0.802041 0.32399  -0.0854984615385
 C2 0.286826 0.803558 0.37437  -0.0854984615385
 C2 0.786824 0.803563 0.37437  -0.0854984615385
 C3 0.334013 0.880474 0.38483  -0.0683767948718
 C3 0.834009 0.880481 0.38483  -0.0683767948718
 C3 0.322952 0.954033 0.34753  -0.0683767948718
 C3 0.82295 0.954039 0.34754  -0.0683767948718
 C1 0.167676 0.727231 0.31182  0.684211538462
 C1 0.667673 0.727236 0.31182  0.684211538462
 C2 0.303136 0.730832 0.41925  -0.0854984615385
 C2 0.803132 0.730835 0.41926  -0.0854984615385
 C2 0.375691 0.680534 0.42160  -0.0854984615385
 C2 0.875689 0.68054 0.42160  -0.0854984615385
 C1 0.433902 0.688546 0.37436  0.684211538462
 C1 0.933899 0.688552 0.37436  0.684211538462
 C3 0.3939 0.619096 0.46818  -0.0683767948718
 C3 0.893895 0.619094 0.46818  -0.0683767948718
 C2 0.340831 0.606166 0.5125  -0.0854984615385
 C2 0.840831 0.606166 0.51253  -0.0854984615385
 C3 0.269553 0.657326 0.51065  -0.0683767948718
 C3 0.769549 0.657322 0.51065  -0.0683767948718
 C3 0.251412 0.718805 0.46497  -0.0683767948718
 C3 0.75141 0.718808 0.46497  -0.0683767948718
 C1 0.358826 0.539987 0.56201  0.684211538462
 C1 0.858821 0.539983 0.56201  0.684211538462
 C4 0.214566 0.40517 0.16845  0.165241538462
 C4 0.71455 0.405167 0.16846  0.165241538462
 C3 0.197112 0.495097 0.16337  -0.0683767948718
 C3 0.697095 0.495093 0.16338  -0.0683767948718
 C3 0.22296 0.550364 0.21169  -0.0683767948718
 C3 0.722946 0.550362 0.21170  -0.0683767948718
 C3 0.266544 0.514502 0.26273  -0.0683767948718
 C3 0.766534 0.514503 0.26273  -0.0683767948718
 C5 0.282452 0.423562 0.26429  0.192571538462
 C5 0.782441 0.423563 0.26429  0.192571538462
 C5 0.328513 0.379047 0.31624  0.192571538462
 C5 0.828505 0.379049 0.31625  0.192571538462
 C3 0.372757 0.425479 0.36287  -0.0683767948718
 C3 0.872751 0.425481 0.36287  -0.0683767948718
 C3 0.416613 0.37912 0.40930  -0.0683767948718
 C3 0.91661 0.379123 0.40930  -0.0683767948718
 C3 0.414957 0.286871 0.40820  -0.0683767948718
 C3 0.914956 0.286873 0.40820  -0.0683767948718
 C4 0.369013 0.24457 0.3608  0.165241538462
 C4 0.869008 0.244572 0.36083  0.165241538462
 C1 0.997963 0.530571 0.24377  0.684211538462
 C1 0.497965 0.530569 0.24377  0.684211538462
 C2 0.484061 0.451476 0.20345  -0.0854984615385
 C2 0.984048 0.451477 0.20345  -0.0854984615385
 C3 0.030548 0.375005 0.21498  -0.0683767948718
 C3 0.530544 0.375 0.2149  -0.0683767948718
 C2 0.022868 0.301995 0.17607  -0.0854984615385
 C2 0.522863 0.301992 0.17607  -0.0854984615385
 C2 0.463167 0.30344 0.12570  -0.0854984615385
 C2 0.963163 0.30344 0.1257  -0.0854984615385
 C3 0.415897 0.380284 0.11528  -0.0683767948718
 C3 0.915884 0.380279 0.11529  -0.0683767948718
 C3 0.426916 0.453857 0.15258  -0.0683767948718
 C3 0.926903 0.453855 0.15259  -0.0683767948718
 C1 0.08237 0.22723 0.18823  0.684211538462
 C1 0.582361 0.227224 0.1882  0.684211538462
 C2 0.446911 0.230707 0.08080  -0.0854984615385
 C2 0.94691 0.230705 0.08080  -0.0854984615385
 C2 0.374348 0.1804 0.07843  -0.0854984615385
 C2 0.874346 0.1804 0.0784  -0.0854984615385
 C1 0.316139 0.188407 0.12567  0.684211538462
 C1 0.816136 0.188407 0.12567  0.684211538462
 C3 0.356108 0.118984 0.03183  -0.0683767948718
 C3 0.856113 0.118979 0.03183  -0.0683767948718
 C2 0.409161 0.106108 0.98750  -0.0854984615385
 C2 0.909168 0.106106 0.98750  -0.0854984615385
 C3 0.480446 0.157279 0.98938  -0.0683767948718
 C3 0.980457 0.157272 0.98939  -0.0683767948718
 C3 0.998642 0.218712 0.03508  -0.0683767948718
 C3 0.498628 0.218715 0.03507  -0.0683767948718
 C1 0.391141 0.03997 0.93798  0.684211538462
 C1 0.891148 0.03997 0.93798  0.684211538462
 C4 0.035428 0.905284 0.33164  0.165241538462
 C4 0.535417 0.905269 0.33165  0.165241538462
 C3 0.052493 0.995323 0.33683  -0.0683767948718
 C3 0.552489 0.995306 0.33685  -0.0683767948718
 C3 0.526361 0.050586 0.28861  -0.0683767948718
 C3 0.0 0.050598 0.28860  -0.0683767948718
 C3 0.482922 0.014643 0.23754  -0.0683767948718
 C3 0.982906 0.014648 0.2375  -0.0683767948718
 C5 0.467408 0.923588 0.23585  0.192571538462
 C5 0.967399 0.923592 0.23584  0.192571538462
 C5 0.421504 0.87898 0.18385  0.192571538462
 C5 0.921493 0.878978 0.18384  0.192571538462
 C3 0.377197 0.925299 0.13721  -0.0683767948718
 C3 0.877192 0.925293 0.13720  -0.0683767948718
 C3 0.333512 0.878838 0.09074  -0.0683767948718
 C3 0.833508 0.878829 0.09073  -0.0683767948718
 C3 0.335414 0.786594 0.09178  -0.0683767948718
 C3 0.8354 0.786584 0.09178  -0.0683767948718
 C4 0.381399 0.744397 0.1391  0.165241538462
 C4 0.881377 0.744391 0.13917  0.165241538462
 C1 0.248006 0.969339 0.74372  0.684211538462
 C1 0.748002 0.969339 0.74372  0.684211538462
 C2 0.234125 0.048429 0.70338  -0.0854984615385
 C2 0.734122 0.048429 0.70338  -0.0854984615385
 C3 0.280538 0.124965 0.71494  -0.0683767948718
 C3 0.780532 0.124967 0.71494  -0.0683767948718
 C2 0.272841 0.197953 0.67603  -0.0854984615385
 C2 0.772835 0.197953 0.67603  -0.0854984615385
 C2 0.213176 0.196429 0.62564  -0.0854984615385
 C2 0.71317 0.196428 0.62564  -0.0854984615385
 C3 0.165995 0.119509 0.61518  -0.0683767948718
 C3 0.665992 0.119506 0.61518  -0.0683767948718
 C3 0.177057 0.04595 0.65247  -0.0683767948718
 C3 0.677053 0.045948 0.65247  -0.0683767948718
 C1 0.332323 0.272757 0.68819  0.684211538462
 C1 0.832316 0.272758 0.68819  0.684211538462
 C2 0.196866 0.269156 0.5807  -0.0854984615385
 C2 0.696861 0.269155 0.58075  -0.0854984615385
 C2 0.124307 0.319449 0.5784  -0.0854984615385
 C2 0.624302 0.319447 0.5784  -0.0854984615385
 C1 0.066097 0.311437 0.62565  0.684211538462
 C1 0.566091 0.311438 0.62565  0.684211538462
 C3 0.106098 0.380886 0.53182  -0.0683767948718
 C3 0.606094 0.380887 0.53182  -0.0683767948718
 C2 0.159168 0.393819 0.48748  -0.0854984615385
 C2 0.659161 0.393817 0.48748  -0.0854984615385
 C3 0.230451 0.342665 0.48936  -0.0683767948718
 C3 0.730445 0.342664 0.48936  -0.0683767948718
 C3 0.248592 0.281186 0.53504  -0.0683767948718
 C3 0.748584 0.281183 0.53504  -0.0683767948718
 C1 0.141174 0.459998 0.43799  0.684211538462
 C1 0.64117 0.459998 0.43799  0.684211538462
 C4 0.285446 0.594828 0.83156  0.165241538462
 C4 0.785435 0.594824 0.83155  0.165241538462
 C3 0.302906 0.504902 0.83664  -0.0683767948718
 C3 0.802891 0.504898 0.8366  -0.0683767948718
 C3 0.277058 0.449631 0.78832  -0.0683767948718
 C3 0.777042 0.449627 0.78832  -0.0683767948718
 C3 0.233469 0.485486 0.73729  -0.0683767948718
 C3 0.733457 0.485484 0.7372  -0.0683767948718
 C5 0.217558 0.576426 0.73572  0.192571538462
 C5 0.717551 0.576424 0.73572  0.192571538462
 C5 0.171496 0.620936 0.6837  0.192571538462
 C5 0.671494 0.620937 0.68376  0.192571538462
 C3 0.127253 0.574502 0.63714  -0.0683767948718
 C3 0.627258 0.574505 0.63713  -0.0683767948718
 C3 0.083396 0.620857 0.59071  -0.0683767948718
 C3 0.583405 0.620862 0.59070  -0.0683767948718
 C3 0.085051 0.713107 0.59180  -0.0683767948718
 C3 0.585055 0.713112 0.591  -0.0683767948718
 C4 0.130996 0.755411 0.63918  0.165241538462
 C4 0.630994 0.755414 0.63918  0.165241538462
 C1 0.502032 0.469419 0.75624  0.684211538462
 C1 0.0 0.469418 0.75624  0.684211538462
 C2 0.015941 0.548512 0.79656  -0.0854984615385
 C2 0.515935 0.548512 0.79656  -0.0854984615385
 C3 0.469454 0.62499 0.78503  -0.0683767948718
 C3 0.969444 0.624985 0.78503  -0.0683767948718
 C2 0.477133 0.697996 0.82394  -0.0854984615385
 C2 0.977125 0.697994 0.82394  -0.0854984615385
 C2 0.036832 0.696547 0.87430  -0.0854984615385
 C2 0.536829 0.696548 0.87431  -0.0854984615385
 C3 0.084108 0.619707 0.88472  -0.0683767948718
 C3 0.584096 0.619702 0.88473  -0.0683767948718
 C3 0.073089 0.546133 0.84742  -0.0683767948718
 C3 0.57308 0.546131 0.8474  -0.0683767948718
 C1 0.417635 0.772764 0.81178  0.684211538462
 C1 0.917626 0.772761 0.81178  0.684211538462
 C2 0.053084 0.769281 0.91921  -0.0854984615385
 C2 0.553086 0.769282 0.91921  -0.0854984615385
 C2 0.125649 0.819586 0.92157  -0.0854984615385
 C2 0.625653 0.819583 0.92157  -0.0854984615385
 C1 0.183858 0.811582 0.87434  0.684211538462
 C1 0.683859 0.811578 0.8743  0.684211538462
 C3 0.143884 0.881005 0.9681  -0.0683767948718
 C3 0.643896 0.881003 0.96817  -0.0683767948718
 C2 0.090832 0.893876 0.01251  -0.0854984615385
 C2 0.59085 0.893876 0.0125  -0.0854984615385
 C3 0.019544 0.842709 0.01062  -0.0683767948718
 C3 0.519562 0.842712 0.01063  -0.0683767948718
 C3 0.501376 0.781274 0.96494  -0.0683767948718
 C3 0.0 0.781271 0.96493  -0.0683767948718
 C1 0.10885 0.960014 0.06203  0.684211538462
 C1 0.608869 0.960019 0.06203  0.684211538462
 C4 0.464579 0.094707 0.66837  0.165241538462
 C4 0.964571 0.09471 0.66837  0.165241538462
 C3 0.447528 0.0 0.66317  -0.0683767948718
 C3 0.947516 0.0 0.66317  -0.0683767948718
 C3 0.97367 0.949393 0.71140  -0.0683767948718
 C3 0.473674 0.94939 0.7114  -0.0683767948718
 C3 0.017105 0.985343 0.76248  -0.0683767948718
 C3 0.517108 0.985341 0.76248  -0.0683767948718
 C5 0.032603 0.076401 0.76416  0.192571538462
 C5 0.532603 0.0764 0.7641  0.192571538462
 C5 0.078506 0.121015 0.8161  0.192571538462
 C5 0.578505 0.121016 0.81617  0.192571538462
 C3 0.122814 0.074701 0.86280  -0.0683767948718
 C3 0.622808 0.074704 0.86281  -0.0683767948718
 C3 0.166501 0.121167 0.90927  -0.0683767948718
 C3 0.666494 0.121171 0.90928  -0.0683767948718
 C3 0.164601 0.213411 0.90823  -0.0683767948718
 C3 0.664599 0.213416 0.90823  -0.0683767948718
 C4 0.118615 0.255603 0.86084  0.165241538462
 C4 0.618618 0.255606 0.86084  0.165241538462
 N1 0.255748 0.37022 0.21776  -0.334928461538
 N1 0.755736 0.370219 0.21776  -0.334928461538
 N1 0.326832 0.289429 0.31576  -0.334928461538
 N1 0.826825 0.289431 0.31576  -0.334928461538
 N1 0.494346 0.870254 0.28231  -0.334928461538
 N1 0.994345 0.870263 0.28230  -0.334928461538
 N1 0.42339 0.789365 0.18428  -0.334928461538
 N1 0.923372 0.789363 0.18428  -0.334928461538
 N1 0.24426 0.629772 0.78225  -0.334928461538
 N1 0.744253 0.629769 0.7822  -0.334928461538
 N1 0.173176 0.710555 0.68425  -0.334928461538
 N1 0.67317 0.710556 0.68425  -0.334928461538
 N1 0.005652 0.129731 0.7177  -0.334928461538
 N1 0.505649 0.129729 0.71771  -0.334928461538
 N1 0.076622 0.210629 0.8157  -0.334928461538
 N1 0.576623 0.210631 0.8157  -0.334928461538
 O1 0.271261 0.105763 0.27903  -0.60731989011
 O1 0.771258 0.105769 0.27903  -0.60731989011
 O1 0.221564 0.01473 0.20250  -0.60731989011
 O1 0.721563 0.014733 0.20251  -0.60731989011
 O1 0.177044 0.659837 0.34633  -0.60731989011
 O1 0.67704 0.659841 0.3463  -0.60731989011
 O1 0.111538 0.736298 0.26866  -0.60731989011
 O1 0.611535 0.736304 0.2686  -0.60731989011
 O1 0.403703 0.701345 0.32004  -0.60731989011
 O1 0.903699 0.701373 0.32004  -0.60731989011
 O1 0.010257 0.681482 0.39060  -0.60731989011
 O1 0.51025 0.68148 0.39060  -0.60731989011
 O1 0.419724 0.486181 0.55777  -0.60731989011
 O1 0.919721 0.486179 0.55777  -0.60731989011
 O2 0.316574 0.53689 0.60593  -0.587228461538
 O2 0.816573 0.53689 0.60593  -0.587228461538
 O1 0.47872 0.605677 0.22103  -0.60731989011
 O1 0.978706 0.605678 0.22103  -0.60731989011
 O1 0.02843 0.5147 0.29755  -0.60731989011
 O1 0.528433 0.514698 0.29755  -0.60731989011
 O1 0.07298 0.159835 0.15370  -0.60731989011
 O1 0.572974 0.159833 0.15370  -0.60731989011
 O1 0.13853 0.236364 0.23136  -0.60731989011
 O1 0.638524 0.23636 0.23136  -0.60731989011
 O1 0.346362 0.201 0.18002  -0.60731989011
 O1 0.846357 0.201004 0.18002  -0.60731989011
 O1 0.239781 0.181496 0.10941  -0.60731989011
 O1 0.739778 0.181498 0.10941  -0.60731989011
 O1 0.330238 0.986129 0.94222  -0.60731989011
 O1 0.830242 0.986133 0.94221  -0.60731989011
 O2 0.433349 0.036912 0.89403  -0.587228461538
 O2 0.933356 0.036914 0.89403  -0.587228461538
 O1 0.228738 0.894223 0.72098  -0.60731989011
 O1 0.728733 0.894222 0.72098  -0.60731989011
 O1 0.278435 0.985255 0.79751  -0.60731989011
 O1 0.778432 0.985255 0.7975  -0.60731989011
 O1 0.322955 0.340151 0.65368  -0.60731989011
 O1 0.82295 0.34015 0.6536  -0.60731989011
 O1 0.388462 0.26369 0.73135  -0.60731989011
 O1 0.888456 0.263689 0.7313  -0.60731989011
 O1 0.096296 0.298632 0.67997  -0.60731989011
 O1 0.596291 0.298626 0.6799  -0.60731989011
 O1 0.489743 0.318503 0.60940  -0.60731989011
 O1 0.989739 0.318503 0.60940  -0.60731989011
 O1 0.080275 0.513803 0.44224  -0.60731989011
 O1 0.58027 0.513802 0.4422  -0.60731989011
 O2 0.183423 0.463092 0.39407  -0.587228461538
 O2 0.683417 0.463092 0.39407  -0.587228461538
 O1 0.021283 0.394311 0.77898  -0.60731989011
 O1 0.521279 0.394312 0.77898  -0.60731989011
 O1 0.471564 0.485289 0.70246  -0.60731989011
 O1 0.97156 0.485288 0.70246  -0.60731989011
 O1 0.42702 0.840153 0.84631  -0.60731989011
 O1 0.927016 0.840153 0.84631  -0.60731989011
 O1 0.361471 0.763627 0.76865  -0.60731989011
 O1 0.861465 0.763627 0.76865  -0.60731989011
 O1 0.153636 0.798985 0.81999  -0.60731989011
 O1 0.653635 0.798975 0.81999  -0.60731989011
 O1 0.260217 0.818487 0.89060  -0.60731989011
 O1 0.760218 0.818485 0.89060  -0.60731989011
 O1 0.169755 0.013852 0.057  -0.60731989011
 O1 0.669768 0.013862 0.05779  -0.60731989011
 O2 0.066643 0.963071 0.10598  -0.587228461538
 O2 0.566666 0.963072 0.10598  -0.587228461538
