#======================================================================

# CRYSTAL DATA

#----------------------------------------------------------------------

data_VESTA_phase_1


_pd_phase_name                         MOF
_cell_length_a                         15.40400
_cell_length_b                         15.37800
_cell_length_c                         22.94600
_cell_angle_alpha                      90.00000
_cell_angle_beta                       89.96600
_cell_angle_gamma                      89.98300
_symmetry_space_group_name_H-M         "P 1"
_symmetry_Int_Tables_number            1

loop_
_symmetry_equiv_pos_as_xyz
   "x, y, z"

loop_
   _atom_site_label
   _atom_site_fract_x
   _atom_site_fract_y
   _atom_site_fract_z
 _atom_site_charge
 Zn1 0.762313 0.666409 0.85792  0.884893389831
 Zn1 0.237698 0.333576 0.3579  0.884893389831
 Zn1 0.833225 0.25932 0.60773  0.884893389831
 Zn1 0.166761 0.740645 0.10767  0.884893389831
 Zn1 0.73767 0.166402 0.89209  0.884893389831
 Zn1 0.262286 0.833577 0.39209  0.884893389831
 Zn1 0.666736 0.759324 0.14227  0.884893389831
 Zn1 0.333223 0.240642 0.64232  0.884893389831
 Zn2 0.721722 0.718962 0.00011  1.10218588983
 Zn2 0.278331 0.280985 0.50009  1.10218588983
 Zn2 0.778241 0.218996 0.74989  1.10218588983
 Zn2 0.221653 0.780986 0.24991  1.10218588983
 H1 0.989928 0.740711 0.04515  0.0982478541162
 H1 0.033994 0.633714 0.87457  0.0982478541162
 H1 0.192854 0.629918 0.89747  0.0982478541162
 H1 0.322296 0.650591 0.91644  0.0982478541162
 H1 0.474938 0.6631 0.95115  0.0982478541162
 H1 0.375893 0.731157 0.12066  0.0982478541162
 H1 0.56822 0.79307 0.91696  0.0982478541162
 H1 0.01002 0.259016 0.5452  0.0982478541162
 H1 0.966353 0.366417 0.37480  0.0982478541162
 H1 0.807453 0.370409 0.39771  0.0982478541162
 H1 0.678089 0.350009 0.41668  0.0982478541162
 H1 0.52531 0.337423 0.45127  0.0982478541162
 H1 0.623811 0.268826 0.62075  0.0982478541162
 H1 0.432164 0.20733 0.4165  0.0982478541162
 H1 0.759058 0.488308 0.79573  0.0982478541162
 H1 0.8656 0.53075 0.62488  0.0982478541162
 H1 0.870348 0.690005 0.64738  0.0982478541162
 H1 0.851177 0.820084 0.66635  0.0982478541162
 H1 0.837733 0.973219 0.70053  0.0982478541162
 H1 0.768551 0.875189 0.87009  0.0982478541162
 H1 0.705886 0.065659 0.66514  0.0982478541162
 H1 0.240446 0.511684 0.29582  0.0982478541162
 H1 0.13412 0.469181 0.12500  0.0982478541162
 H1 0.129278 0.309947 0.14755  0.0982478541162
 H1 0.148051 0.179842 0.16660  0.0982478541162
 H1 0.161729 0.026711 0.20075  0.0982478541162
 H1 0.231524 0.124798 0.37013  0.0982478541162
 H1 0.294136 0.934245 0.16509  0.0982478541162
 H1 0.510018 0.24073 0.70486  0.0982478541162
 H1 0.46603 0.133676 0.87542  0.0982478541162
 H1 0.307177 0.129863 0.85252  0.0982478541162
 H1 0.17773 0.150534 0.83355  0.0982478541162
 H1 0.02508 0.163047 0.79884  0.0982478541162
 H1 0.124084 0.23114 0.62933  0.0982478541162
 H1 0.931734 0.293043 0.83306  0.0982478541162
 H1 0.489979 0.759058 0.20471  0.0982478541162
 H1 0.533564 0.866388 0.37521  0.0982478541162
 H1 0.692462 0.870385 0.35230  0.0982478541162
 H1 0.82183 0.85001 0.33332  0.0982478541162
 H1 0.974618 0.837422 0.29873  0.0982478541162
 H1 0.876161 0.768842 0.12924  0.0982478541162
 H1 0.067862 0.70736 0.33344  0.0982478541162
 H1 0.740947 0.988264 0.95428  0.0982478541162
 H1 0.634354 0.03074 0.12512  0.0982478541162
 H1 0.629601 0.189997 0.10262  0.0982478541162
 H1 0.648779 0.32008 0.08365  0.0982478541162
 H1 0.66223 0.473204 0.04947  0.0982478541162
 H1 0.731452 0.375126 0.87992  0.0982478541162
 H1 0.793941 0.565487 0.08490  0.0982478541162
 H1 0.259538 0.011689 0.45416  0.0982478541162
 H1 0.365874 0.969158 0.62499  0.0982478541162
 H1 0.370715 0.80992 0.60245  0.0982478541162
 H1 0.351966 0.679822 0.58339  0.0982478541162
 H1 0.338272 0.526693 0.54926  0.0982478541162
 H1 0.26848 0.624797 0.37987  0.0982478541162
 H1 0.205724 0.434256 0.58495  0.0982478541162
 C1 0.032811 0.71591 0.01129  0.204900889831
 C2 0.999958 0.688062 0.95772  -0.197933485169
 C3 0.058674 0.65653 0.91634  -0.0726709851695
 C3 0.146737 0.654751 0.92930  -0.0726709851695
 C4 0.175267 0.684296 0.98372  0.186119639831
 C4 0.267993 0.685778 0.  0.186119639831
 C3 0.335502 0.667795 0.96156  -0.0726709851695
 C3 0.420756 0.674652 0.98064  -0.0726709851695
 C2 0.437867 0.698218 0.03842  -0.197933485169
 C1 0.36687 0.713019 0.07515  0.204900889831
 C5 0.903923 0.691547 0.94522  0.694587139831
 C5 0.530704 0.711402 0.05796  0.694587139831
 C6 0.611823 0.753876 0.88901  0.619085889831
 C1 0.967233 0.283947 0.51143  0.204900889831
 C2 0.000164 0.311896 0.45788  -0.197933485169
 C3 0.941547 0.343571 0.41654  -0.0726709851695
 C3 0.853479 0.345453 0.42952  -0.0726709851695
 C4 0.824851 0.315834 0.48392  0.186119639831
 C4 0.732091 0.31445 0.50085  0.186119639831
 C3 0.664708 0.332634 0.46176  -0.0726709851695
 C3 0.579396 0.325752 0.48078  -0.0726709851695
 C2 0.56212 0.301981 0.53852  -0.197933485169
 C1 0.633006 0.287063 0.57527  0.204900889831
 C5 0.096177 0.308405 0.44531  0.694587139831
 C5 0.469243 0.288687 0.55800  0.694587139831
 C6 0.388333 0.246343 0.38868  0.619085889831
 C1 0.78399 0.530862 0.76173  0.204900889831
 C2 0.811277 0.497496 0.70813  -0.197933485169
 C3 0.843089 0.555876 0.66662  -0.0726709851695
 C3 0.845486 0.644157 0.67940  -0.0726709851695
 C4 0.816454 0.673215 0.73384  0.186119639831
 C4 0.815224 0.766241 0.75054  0.186119639831
 C3 0.833418 0.83362 0.71134  -0.0726709851695
 C3 0.826033 0.919142 0.73013  -0.0726709851695
 C2 0.801621 0.936688 0.78773  -0.197933485169
 C1 0.787035 0.865852 0.8246  0.204900889831
 C5 0.807014 0.401238 0.69567  0.694587139831
 C5 0.787292 0.029736 0.80680  0.694587139831
 C6 0.745266 0.110162 0.63797  0.619085889831
 C1 0.215565 0.469124 0.26183  0.204900889831
 C2 0.188351 0.502482 0.20823  -0.197933485169
 C3 0.156543 0.444085 0.16676  -0.0726709851695
 C3 0.154117 0.355805 0.17955  -0.0726709851695
 C4 0.183142 0.326751 0.23397  0.186119639831
 C4 0.184413 0.233717 0.25068  0.186119639831
 C3 0.166042 0.166325 0.21154  -0.0726709851695
 C3 0.173511 0.080806 0.23032  -0.0726709851695
 C2 0.198158 0.063274 0.28785  -0.197933485169
 C1 0.212881 0.134119 0.32474  0.204900889831
 C5 0.19278 0.598738 0.19573  0.694587139831
 C5 0.212591 0.970238 0.30689  0.694587139831
 C6 0.254744 0.88976 0.13795  0.619085889831
 C1 0.467171 0.215914 0.73871  0.204900889831
 C2 0.500016 0.188056 0.79229  -0.197933485169
 C3 0.44134 0.1565 0.83366  -0.0726709851695
 C3 0.353281 0.15471 0.82069  -0.0726709851695
 C4 0.324739 0.184264 0.76627  0.186119639831
 C4 0.232012 0.185739 0.74933  0.186119639831
 C3 0.164514 0.167747 0.78843  -0.0726709851695
 C3 0.079257 0.174604 0.76935  -0.0726709851695
 C2 0.062129 0.198187 0.71156  -0.197933485169
 C1 0.133116 0.212994 0.67484  0.204900889831
 C5 0.596048 0.191555 0.80479  0.694587139831
 C5 0.969262 0.211374 0.69203  0.694587139831
 C6 0.888144 0.253855 0.86101  0.619085889831
 C1 0.532728 0.783973 0.23856  0.204900889831
 C2 0.499809 0.811903 0.2921  -0.197933485169
 C3 0.558385 0.843559 0.33346  -0.0726709851695
 C3 0.646451 0.845444 0.32048  -0.0726709851695
 C4 0.675093 0.815841 0.26608  0.186119639831
 C4 0.767851 0.814455 0.24915  0.186119639831
 C3 0.835223 0.832635 0.28824  -0.0726709851695
 C3 0.920537 0.825756 0.26922  -0.0726709851695
 C2 0.937828 0.801993 0.21148  -0.197933485169
 C1 0.866952 0.787073 0.17473  0.204900889831
 C5 0.403802 0.808405 0.30468  0.694587139831
 C5 0.030735 0.7887 0.19200  0.694587139831
 C6 0.111673 0.746364 0.36131  0.619085889831
 C1 0.715997 0.030817 0.98828  0.204900889831
 C2 0.688702 0.997471 0.0418  -0.197933485169
 C3 0.656872 0.055855 0.08338  -0.0726709851695
 C3 0.654472 0.144137 0.07060  -0.0726709851695
 C4 0.683517 0.173182 0.01617  0.186119639831
 C4 0.684749 0.266209 0.99946  0.186119639831
 C3 0.66655 0.333602 0.03866  -0.0726709851695
 C3 0.673935 0.419119 0.01987  -0.0726709851695
 C2 0.698368 0.436658 0.96228  -0.197933485169
 C1 0.712957 0.365809 0.92535  0.204900889831
 C5 0.692957 0.901211 0.05434  0.694587139831
 C5 0.7127 0.529716 0.94321  0.694587139831
 C6 0.754614 0.610056 0.11207  0.619085889831
 C1 0.284427 0.969133 0.48816  0.204900889831
 C2 0.311641 0.002471 0.54176  -0.197933485169
 C3 0.34345 0.944072 0.58323  -0.0726709851695
 C3 0.34588 0.855788 0.57044  -0.0726709851695
 C4 0.316856 0.826743 0.51603  0.186119639831
 C4 0.315592 0.733707 0.49932  0.186119639831
 C3 0.333967 0.666308 0.53846  -0.0726709851695
 C3 0.326495 0.58079 0.51969  -0.0726709851695
 C2 0.301837 0.563264 0.46215  -0.197933485169
 C1 0.287122 0.634115 0.42526  0.204900889831
 C5 0.307225 0.098734 0.55425  0.694587139831
 C5 0.287393 0.47022 0.44312  0.694587139831
 C6 0.245163 0.389748 0.61206  0.619085889831
 N1 0.117855 0.713818 0.02400  -0.318712860169
 N1 0.284503 0.707606 0.05657  -0.318712860169
 N1 0.882168 0.286119 0.52415  -0.318712860169
 N1 0.715429 0.29247 0.55673  -0.318712860169
 N1 0.786894 0.616091 0.7743  -0.318712860169
 N1 0.793087 0.783243 0.80635  -0.318712860169
 N1 0.212704 0.383892 0.27442  -0.318712860169
 N1 0.206776 0.216722 0.30643  -0.318712860169
 N1 0.382131 0.213808 0.72599  -0.318712860169
 N1 0.215486 0.207581 0.69342  -0.318712860169
 N1 0.617791 0.786143 0.22584  -0.318712860169
 N1 0.784527 0.792475 0.19327  -0.318712860169
 N1 0.713093 0.116049 0.97569  -0.318712860169
 N1 0.706899 0.283206 0.94366  -0.318712860169
 N1 0.287289 0.883897 0.47558  -0.318712860169
 N1 0.293227 0.716717 0.44356  -0.318712860169
 O1 0.856018 0.722259 0.98486  -0.589905047669
 O1 0.881696 0.662948 0.89522  -0.589905047669
 O1 0.585479 0.715112 0.01709  -0.589905047669
 O1 0.544588 0.718924 0.11252  -0.589905047669
 O2 0.689045 0.740632 0.91192  -0.627379110169
 O3 0.58948 0.726449 0.84087  -0.603046610169
 O1 0.144099 0.277667 0.48489  -0.589905047669
 O1 0.118356 0.337054 0.39530  -0.589905047669
 O1 0.414552 0.284953 0.51713  -0.589905047669
 O1 0.455293 0.281083 0.61256  -0.589905047669
 O2 0.311166 0.259433 0.41178  -0.627379110169
 O3 0.410432 0.273706 0.34046  -0.603046610169
 O1 0.77426 0.353827 0.73486  -0.589905047669
 O1 0.837108 0.378459 0.64619  -0.589905047669
 O1 0.784839 0.08406 0.76551  -0.589905047669
 O1 0.777647 0.044148 0.86110  -0.589905047669
 O2 0.757485 0.187203 0.66146  -0.627379110169
 O3 0.773915 0.088886 0.58989  -0.603046610169
 O1 0.225575 0.646115 0.23491  -0.589905047669
 O1 0.162825 0.621534 0.14624  -0.589905047669
 O1 0.215098 0.915924 0.26560  -0.589905047669
 O1 0.22229 0.955839 0.36118  -0.589905047669
 O2 0.242518 0.812701 0.16143  -0.627379110169
 O3 0.226077 0.911086 0.08990  -0.603046610169
 O1 0.643938 0.222278 0.76516  -0.589905047669
 O1 0.618285 0.16295 0.85479  -0.589905047669
 O1 0.914485 0.21509 0.732  -0.589905047669
 O1 0.955373 0.218898 0.63747  -0.589905047669
 O2 0.810933 0.240617 0.83810  -0.627379110169
 O3 0.910494 0.226433 0.90915  -0.603046610169
 O1 0.355893 0.777669 0.26511  -0.589905047669
 O1 0.381619 0.837048 0.35470  -0.589905047669
 O1 0.085426 0.784959 0.23287  -0.589905047669
 O1 0.044685 0.781099 0.13744  -0.589905047669
 O2 0.188835 0.759449 0.33822  -0.627379110169
 O3 0.089558 0.773719 0.40954  -0.603046610169
 O1 0.725711 0.853767 0.01515  -0.589905047669
 O1 0.662857 0.878462 0.10382  -0.589905047669
 O1 0.715154 0.58403 0.98450  -0.589905047669
 O1 0.72235 0.54414 0.88891  -0.589905047669
 O2 0.742365 0.687078 0.08855  -0.627379110169
 O3 0.726035 0.588858 0.16018  -0.603046610169
 O1 0.274427 0.146127 0.51507  -0.589905047669
 O1 0.337191 0.121524 0.60373  -0.589905047669
 O1 0.284881 0.415914 0.48442  -0.589905047669
 O1 0.277689 0.455821 0.38883  -0.589905047669
 O2 0.257325 0.312671 0.58859  -0.627379110169
 O3 0.273925 0.41107 0.66008  -0.603046610169
