#======================================================================

# CRYSTAL DATA

#----------------------------------------------------------------------

data_VESTA_phase_1


_pd_phase_name                         MOF
_cell_length_a                         14.23000
_cell_length_b                         15.18200
_cell_length_c                         15.16300
_cell_angle_alpha                      69.11900
_cell_angle_beta                       72.17900
_cell_angle_gamma                      107.93700
_symmetry_space_group_name_H-M         "P 1"
_symmetry_Int_Tables_number            1

loop_
_symmetry_equiv_pos_as_xyz
   "x, y, z"

loop_
   _atom_site_label
   _atom_site_fract_x
   _atom_site_fract_y
   _atom_site_fract_z
 _atom_site_charge
 Zn1 0.984147 0.728813 0.78298  0.744376388889
 Zn1 0.764203 0.782689 0.48926  0.744376388889
 Zn1 0.257477 0.4907 0.72789  0.744376388889
 Zn1 0.015851 0.271184 0.21702  0.744376388889
 Zn1 0.235802 0.217313 0.51074  0.744376388889
 Zn1 0.74253 0.509304 0.27211  0.744376388889
 H1 0.26148 0.799818 0.68707  0.0910222222222
 H1 0.319561 0.711329 0.71045  0.0910222222222
 H1 0.193271 0.622025 0.90986  0.0910222222222
 H1 0.291164 0.759 0.84993  0.0910222222222
 H1 0.151988 0.748863 0.00807  0.0910222222222
 H1 0.05835 0.616639 0.04790  0.0910222222222
 H1 0.964667 0.716328 0.10738  0.0910222222222
 H1 0.017665 0.811498 0.97129  0.0910222222222
 H1 0.941693 0.680655 0.51771  0.0910222222222
 H1 0.024208 0.703408 0.58193  0.0910222222222
 H1 0.09993 0.903351 0.46772  0.0910222222222
 H1 0.133562 0.838861 0.39379  0.0910222222222
 H1 0.152346 0.995662 0.24229  0.0910222222222
 H1 0.105251 0.041948 0.331  0.0910222222222
 H1 0.066221 0.099354 0.17443  0.0910222222222
 H1 0.980709 0.96315 0.21896  0.0910222222222
 H1 0.462048 0.518771 0.8019  0.0910222222222
 H1 0.607663 0.58413 0.71572  0.0910222222222
 H1 0.573557 0.471665 0.62740  0.0910222222222
 H1 0.533741 0.396417 0.7656  0.0910222222222
 H1 0.407702 0.247364 0.7537  0.0910222222222
 H1 0.445547 0.33794 0.62029  0.0910222222222
 H1 0.254234 0.178934 0.71889  0.0910222222222
 H1 0.212007 0.221132 0.81289  0.0910222222222
 H1 0.738517 0.200182 0.31293  0.0910222222222
 H1 0.680441 0.288674 0.28955  0.0910222222222
 H1 0.80674 0.377976 0.09014  0.0910222222222
 H1 0.708841 0.241004 0.1500  0.0910222222222
 H1 0.848014 0.251125 0.99194  0.0910222222222
 H1 0.941649 0.38335 0.95211  0.0910222222222
 H1 0.035337 0.283664 0.89263  0.0910222222222
 H1 0.982341 0.188496 0.0287  0.0910222222222
 H1 0.058313 0.319349 0.48229  0.0910222222222
 H1 0.975797 0.296598 0.41808  0.0910222222222
 H1 0.900072 0.096655 0.53228  0.0910222222222
 H1 0.866443 0.161144 0.60622  0.0910222222222
 H1 0.847656 0.0 0.7577  0.0910222222222
 H1 0.894754 0.958055 0.66891  0.0910222222222
 H1 0.93378 0.900647 0.82557  0.0910222222222
 H1 0.019293 0.03685 0.78105  0.0910222222222
 H1 0.537957 0.48123 0.19802  0.0910222222222
 H1 0.392342 0.41587 0.28428  0.0910222222222
 H1 0.426447 0.528337 0.37260  0.0910222222222
 H1 0.466264 0.603585 0.2343  0.0910222222222
 H1 0.592297 0.752634 0.24629  0.0910222222222
 H1 0.554455 0.662055 0.37972  0.0910222222222
 H1 0.745766 0.821066 0.28111  0.0910222222222
 H1 0.787994 0.77887 0.18711  0.0910222222222
 C1 0.151129 0.639437 0.74138  0.370788055556
 C2 0.24378 0.718981 0.74133  -0.305352777778
 C3 0.216701 0.704408 0.85262  0.158671388889
 C3 0.085527 0.701647 0.99607  0.158671388889
 C2 0.988411 0.727029 0.02672  -0.305352777778
 C1 0.888137 0.658128 0.02618  0.370788055556
 C1 0.890545 0.740573 0.62024  0.370788055556
 C2 0.98001 0.735705 0.54264  -0.305352777778
 C3 0.064137 0.84507 0.44448  0.158671388889
 C3 0.076937 0.988037 0.30099  0.158671388889
 C2 0.009807 0.020011 0.24564  -0.305352777778
 C1 0.912457 0.024019 0.31446  0.370788055556
 C1 0.511567 0.622519 0.64019  0.370788055556
 C2 0.525236 0.544735 0.72194  -0.305352777778
 C3 0.514281 0.447463 0.70889  0.158671388889
 C3 0.38818 0.3058 0.70488  0.158671388889
 C2 0.266651 0.249243 0.72882  -0.305352777778
 C1 0.234763 0.317556 0.65816  0.370788055556
 C1 0.84887 0.360561 0.25862  0.370788055556
 C2 0.756221 0.281019 0.25867  -0.305352777778
 C3 0.783304 0.295592 0.14738  0.158671388889
 C3 0.914474 0.298344 0.  0.158671388889
 C2 0.011592 0.272964 0.97329  -0.305352777778
 C1 0.111866 0.341869 0.97383  0.370788055556
 C1 0.109457 0.259429 0.37977  0.370788055556
 C2 0.0 0.2643 0.4573  -0.305352777778
 C3 0.935867 0.154935 0.55553  0.158671388889
 C3 0.923066 0.0 0.69902  0.158671388889
 C2 0.990195 0.979989 0.75436  -0.305352777778
 C1 0.087545 0.975981 0.68555  0.370788055556
 C1 0.488438 0.377484 0.35982  0.370788055556
 C2 0.474768 0.455266 0.27806  -0.305352777778
 C3 0.485723 0.552539 0.29111  0.158671388889
 C3 0.611821 0.694199 0.29513  0.158671388889
 C2 0.733351 0.750758 0.27119  -0.305352777778
 C1 0.765242 0.682447 0.34184  0.370788055556
 N1 0.052748 0.638331 0.75447  -0.305276944444
 N2 0.98932 0.549218 0.75515  -0.0830173611111
 N2 0.047354 0.498632 0.74248  -0.0830173611111
 N1 0.14931 0.553724 0.73325  -0.305276944444
 N1 0.880058 0.658563 0.93984  -0.305276944444
 N2 0.775564 0.580474 0.97574  -0.0830173611111
 N2 0.722329 0.535056 0.07955  -0.0830173611111
 N1 0.790642 0.582664 0.11351  -0.305276944444
 N1 0.806018 0.755454 0.60754  -0.305276944444
 N2 0.746445 0.761037 0.69368  -0.0830173611111
 N2 0.792918 0.74949 0.7563  -0.0830173611111
 N1 0.883212 0.736104 0.71234  -0.305276944444
 N1 0.818442 0.939962 0.40047  -0.305276944444
 N2 0.753182 0.979389 0.44194  -0.0830173611111
 N2 0.805282 0.083154 0.38300  -0.0830173611111
 N1 0.905312 0.113527 0.30182  -0.305276944444
 N1 0.414476 0.609967 0.63825  -0.305276944444
 N2 0.43902 0.696292 0.54726  -0.0830173611111
 N2 0.54685 0.758916 0.49635  -0.0830173611111
 N1 0.59428 0.714729 0.5531  -0.305276944444
 N1 0.225437 0.403444 0.6573  -0.305276944444
 N2 0.198936 0.444567 0.57789  -0.0830173611111
 N2 0.191724 0.385518 0.53291  -0.0830173611111
 N1 0.213001 0.304616 0.58215  -0.305276944444
 N1 0.947249 0.361663 0.2455  -0.305276944444
 N2 0.010676 0.450774 0.2448  -0.0830173611111
 N2 0.952642 0.50136 0.2575  -0.0830173611111
 N1 0.850687 0.446271 0.26676  -0.305276944444
 N1 0.119945 0.341431 0.0601  -0.305276944444
 N2 0.224433 0.419528 0.  -0.0830173611111
 N2 0.277673 0.46494 0.92046  -0.0830173611111
 N1 0.209358 0.417338 0.88650  -0.305276944444
 N1 0.193983 0.244547 0.39247  -0.305276944444
 N2 0.253552 0.238959 0.30633  -0.0830173611111
 N2 0.207075 0.250501 0.24370  -0.0830173611111
 N1 0.116785 0.263894 0.28767  -0.305276944444
 N1 0.181561 0.060037 0.59954  -0.305276944444
 N2 0.246821 0.0 0.55807  -0.0830173611111
 N2 0.194719 0.916844 0.61701  -0.0830173611111
 N1 0.094688 0.886472 0.69819  -0.305276944444
 N1 0.585529 0.390037 0.36175  -0.305276944444
 N2 0.560986 0.303713 0.45275  -0.0830173611111
 N2 0.453156 0.241088 0.50365  -0.0830173611111
 N1 0.405724 0.285274 0.44687  -0.305276944444
 N1 0.77457 0.59656 0.34266  -0.305276944444
 N2 0.801072 0.555438 0.42211  -0.0830173611111
 N2 0.808284 0.614486 0.46709  -0.0830173611111
 N1 0.787004 0.695387 0.4178  -0.305276944444
 O1 0.126515 0.728025 0.88695  -0.367590277778
 O1 0.008365 0.880542 0.3861  -0.367590277778
 O1 0.40185 0.389244 0.73019  -0.367590277778
 O1 0.873486 0.271969 0.11305  -0.367590277778
 O1 0.991638 0.11946 0.61382  -0.367590277778
 O1 0.598154 0.610758 0.26981  -0.367590277778
