#======================================================================

# CRYSTAL DATA

#----------------------------------------------------------------------

data_VESTA_phase_1


_pd_phase_name                         MOF
_cell_length_a                         22.69400
_cell_length_b                         12.28700
_cell_length_c                         12.28700
_cell_angle_alpha                      69.03100
_cell_angle_beta                       72.07200
_cell_angle_gamma                      107.92800
_symmetry_space_group_name_H-M         "P 1"
_symmetry_Int_Tables_number            1

loop_
_symmetry_equiv_pos_as_xyz
   "x, y, z"

loop_
   _atom_site_label
   _atom_site_fract_x
   _atom_site_fract_y
   _atom_site_fract_z
 _atom_site_charge
 Zn1 0.346757 0.538972 0.9450  0.0481986904762
 Zn1 0.847692 0.540881 0.9445  0.0481986904762
 Zn1 0.320448 0.946038 0.50951  0.0481986904762
 Zn1 0.820296 0.945225 0.50825  0.0481986904762
 Zn1 0.076859 0.50949 0.53787  0.0481986904762
 Zn1 0.575928 0.508801 0.5382  0.0481986904762
 Zn1 0.151353 0.454531 0.05138  0.0481986904762
 Zn1 0.652647 0.457041 0.05035  0.0481986904762
 Zn1 0.178319 0.05089 0.4886  0.0481986904762
 Zn1 0.678331 0.05121 0.48740  0.0481986904762
 Zn1 0.423289 0.489266 0.45501  0.0481986904762
 Zn1 0.922534 0.488253 0.45613  0.0481986904762
 H1 0.151423 0.734544 0.93825  0.132582857143
 H1 0.651746 0.733953 0.93808  0.132582857143
 H1 0.197059 0.868094 0.771  0.132582857143
 H1 0.698631 0.871601 0.77320  0.132582857143
 H1 0.142724 0.70611 0.81093  0.132582857143
 H1 0.644897 0.712177 0.80645  0.132582857143
 H1 0.44892 0.795406 0.66861  0.132582857143
 H1 0.950091 0.798157 0.66665  0.132582857143
 H1 0.416816 0.727864 0.5799  0.132582857143
 H1 0.917603 0.728349 0.57978  0.132582857143
 H1 0.435529 0.892985 0.53881  0.132582857143
 H1 0.936298 0.893792 0.53654  0.132582857143
 H1 0.122521 0.938508 0.31860  0.132582857143
 H1 0.621811 0.938163 0.32025  0.132582857143
 H1 0.084757 0.771526 0.35205  0.132582857143
 H1 0.584932 0.771876 0.35141  0.132582857143
 H1 0.050046 0.811264 0.47421  0.132582857143
 H1 0.549093 0.809216 0.47490  0.132582857143
 H1 0.28551 0.671392 0.53030  0.132582857143
 H1 0.782695 0.665931 0.5337  0.132582857143
 H1 0.207347 0.578179 0.68426  0.132582857143
 H1 0.706059 0.579239 0.68938  0.132582857143
 H1 0.209336 0.542208 0.55594  0.132582857143
 H1 0.704094 0.536476 0.5664  0.132582857143
 H1 0.283184 0.322443 0.73273  0.132582857143
 H1 0.782876 0.3214 0.7359  0.132582857143
 H1 0.261756 0.353383 0.8679  0.132582857143
 H1 0.762272 0.355946 0.86876  0.132582857143
 H1 0.288503 0.477529 0.70682  0.132582857143
 H1 0.788623 0.477487 0.70663  0.132582857143
 H1 0.052745 0.531796 0.79026  0.132582857143
 H1 0.551752 0.531203 0.79090  0.132582857143
 H1 0.052428 0.686544 0.72827  0.132582857143
 H1 0.549914 0.684649 0.73175  0.132582857143
 H1 0.487993 0.555168 0.89564  0.132582857143
 H1 0.989311 0.559323 0.89286  0.132582857143
 H1 0.347302 0.261193 0.06006  0.132582857143
 H1 0.8473 0.261529 0.05770  0.132582857143
 H1 0.301376 0.126983 0.22675  0.132582857143
 H1 0.800667 0.125635 0.2236  0.132582857143
 H1 0.355239 0.288673 0.18834  0.132582857143
 H1 0.855162 0.285907 0.18752  0.132582857143
 H1 0.04952 0.201193 0.33052  0.132582857143
 H1 0.5501 0.202249 0.32898  0.132582857143
 H1 0.082664 0.269319 0.41792  0.132582857143
 H1 0.583135 0.271187 0.41588  0.132582857143
 H1 0.06322 0.103843 0.45992  0.132582857143
 H1 0.563774 0.105517 0.45865  0.132582857143
 H1 0.37781 0.060232 0.67536  0.132582857143
 H1 0.878013 0.059169 0.67310  0.132582857143
 H1 0.414399 0.226573 0.64402  0.132582857143
 H1 0.913226 0.224054 0.64598  0.132582857143
 H1 0.449933 0.18954 0.52010  0.132582857143
 H1 0.950453 0.191159 0.51962  0.132582857143
 H1 0.214926 0.329927 0.46534  0.132582857143
 H1 0.713288 0.32517 0.46575  0.132582857143
 H1 0.291328 0.416535 0.30929  0.132582857143
 H1 0.791378 0.419071 0.31154  0.132582857143
 H1 0.293681 0.459709 0.43173  0.132582857143
 H1 0.789303 0.454811 0.44000  0.132582857143
 H1 0.215965 0.675339 0.25991  0.132582857143
 H1 0.716508 0.680416 0.25620  0.132582857143
 H1 0.236895 0.642845 0.12565  0.132582857143
 H1 0.737074 0.642324 0.12593  0.132582857143
 H1 0.210632 0.519941 0.28704  0.132582857143
 H1 0.710458 0.523395 0.28949  0.132582857143
 H1 0.448065 0.46274 0.20107  0.132582857143
 H1 0.947179 0.464091 0.20214  0.132582857143
 H1 0.447563 0.307683 0.2698  0.132582857143
 H1 0.945675 0.308109 0.27061  0.132582857143
 H1 0.009808 0.431088 0.10498  0.132582857143
 H1 0.510717 0.430832 0.10415  0.132582857143
 C1 0.179788 0.763167 0.83428  -0.42226297619
 C1 0.681104 0.76602 0.83336  -0.42226297619
 C2 0.240784 0.736538 0.81058  0.37789702381
 C2 0.742008 0.739107 0.80940  0.37789702381
 C2 0.342006 0.748344 0.71802  0.37789702381
 C2 0.843017 0.750196 0.71666  0.37789702381
 C1 0.414909 0.79364 0.62114  -0.42226297619
 C1 0.915833 0.795109 0.61970  -0.42226297619
 C1 0.098854 0.834538 0.39401  -0.42226297619
 C1 0.598318 0.833897 0.39469  -0.42226297619
 C2 0.147841 0.810806 0.44479  0.37789702381
 C2 0.647135 0.810062 0.44593  0.37789702381
 C2 0.20303 0.718878 0.52537  0.37789702381
 C2 0.701259 0.716924 0.52891  0.37789702381
 C1 0.227815 0.62249 0.57662  -0.42226297619
 C1 0.724974 0.619412 0.58246  -0.42226297619
 C1 0.297074 0.396633 0.76280  -0.42226297619
 C1 0.797212 0.397245 0.76387  -0.42226297619
 C2 0.371338 0.446526 0.73643  0.37789702381
 C2 0.871626 0.44766 0.73654  0.37789702381
 C2 0.466625 0.525903 0.7487  0.37789702381
 C2 0.967306 0.528046 0.74736  0.37789702381
 C1 0.018655 0.579093 0.79219  -0.42226297619
 C1 0.516897 0.576834 0.79431  -0.42226297619
 C1 0.318561 0.23195 0.16412  -0.42226297619
 C1 0.818442 0.231089 0.16210  -0.42226297619
 C2 0.257486 0.25831 0.18735  0.37789702381
 C2 0.757804 0.258773 0.18585  0.37789702381
 C2 0.156449 0.247262 0.27979  0.37789702381
 C2 0.657063 0.248649 0.27853  0.37789702381
 C1 0.083892 0.202982 0.37720  -0.42226297619
 C1 0.584455 0.204473 0.37570  -0.42226297619
 C1 0.400838 0.16436 0.60100  -0.42226297619
 C1 0.90077 0.163851 0.60055  -0.42226297619
 C2 0.351413 0.187192 0.55110  0.37789702381
 C2 0.851632 0.18719 0.55004  0.37789702381
 C2 0.296638 0.279353 0.46925  0.37789702381
 C2 0.796109 0.2786 0.46999  0.37789702381
 C1 0.272645 0.376519 0.41614  -0.42226297619
 C1 0.771002 0.374567 0.41918  -0.42226297619
 C1 0.201886 0.600415 0.23078  -0.42226297619
 C1 0.702068 0.602954 0.23033  -0.42226297619
 C2 0.127477 0.549968 0.25807  0.37789702381
 C2 0.627698 0.552046 0.25731  0.37789702381
 C2 0.031729 0.467789 0.24806  0.37789702381
 C2 0.532167 0.468965 0.24691  0.37789702381
 C1 0.481762 0.41474 0.20311  -0.42226297619
 C1 0.980363 0.414968 0.20405  -0.42226297619
 N1 0.306392 0.641733 0.83920  -0.18903297619
 N1 0.807319 0.643417 0.83770  -0.18903297619
 N1 0.24127 0.633946 0.89878  -0.18903297619
 N1 0.742358 0.636178 0.89739  -0.18903297619
 N2 0.302702 0.809963 0.69636  -0.37689797619
 N2 0.803944 0.812513 0.69519  -0.37689797619
 N1 0.227124 0.839314 0.51263  -0.18903297619
 N1 0.726638 0.838612 0.51313  -0.18903297619
 N1 0.191617 0.898472 0.46092  -0.18903297619
 N1 0.691835 0.898552 0.45986  -0.18903297619
 N2 0.153375 0.697313 0.48417  -0.37689797619
 N2 0.651414 0.695376 0.48829  -0.37689797619
 N1 0.484393 0.512843 0.64127  -0.18903297619
 N1 0.984717 0.514499 0.64014  -0.18903297619
 N1 0.42317 0.461906 0.63317  -0.18903297619
 N1 0.923239 0.462941 0.63301  -0.18903297619
 N2 0.396442 0.485608 0.8108  -0.37689797619
 N2 0.897132 0.487474 0.81015  -0.37689797619
 N1 0.191809 0.352757 0.15791  -0.18903297619
 N1 0.692888 0.355351 0.15740  -0.18903297619
 N1 0.256819 0.360068 0.09841  -0.18903297619
 N1 0.757718 0.362042 0.09774  -0.18903297619
 N2 0.195804 0.185878 0.30194  -0.37689797619
 N2 0.695899 0.185815 0.3000  -0.37689797619
 N1 0.271129 0.157328 0.48591  -0.18903297619
 N1 0.772035 0.158037 0.4830  -0.18903297619
 N1 0.306313 0.09797 0.53852  -0.18903297619
 N1 0.807727 0.099185 0.53444  -0.18903297619
 N2 0.347026 0.301776 0.50851  -0.37689797619
 N2 0.845967 0.300581 0.51067  -0.37689797619
 N1 0.014539 0.484123 0.35363  -0.18903297619
 N1 0.514653 0.485456 0.35237  -0.18903297619
 N1 0.076049 0.536848 0.36024  -0.18903297619
 N1 0.576032 0.538756 0.35925  -0.18903297619
 N2 0.101782 0.507476 0.18604  -0.37689797619
 N2 0.602303 0.509169 0.18517  -0.37689797619
