#======================================================================

# CRYSTAL DATA

#----------------------------------------------------------------------

data_VESTA_phase_1


_pd_phase_name                         MOF
_cell_length_a                         17.02100
_cell_length_b                         13.23900
_cell_length_c                         13.27900
_cell_angle_alpha                      89.58800
_cell_angle_beta                       89.98500
_cell_angle_gamma                      89.88400
_symmetry_space_group_name_H-M         "P 1"
_symmetry_Int_Tables_number            1

loop_
_symmetry_equiv_pos_as_xyz
   "x, y, z"

loop_
   _atom_site_label
   _atom_site_fract_x
   _atom_site_fract_y
   _atom_site_fract_z
 _atom_site_charge
 Sr1 0.356053 0.059049 0.95072  1.51615569444
 Sr1 0.856054 0.059048 0.95072  1.51615569444
 Sr1 0.356123 0.44156 0.54980  1.51615569444
 Sr1 0.856124 0.441561 0.54980  1.51615569444
 Sr1 0.355802 0.550098 0.0590  1.51615569444
 Sr1 0.855803 0.550098 0.05901  1.51615569444
 Sr1 0.355963 0.950866 0.44141  1.51615569444
 Sr1 0.855965 0.950867 0.44141  1.51615569444
 Sr1 0.143941 0.940944 0.04922  1.51615569444
 Sr1 0.643942 0.940943 0.04922  1.51615569444
 Sr1 0.143872 0.558447 0.45016  1.51615569444
 Sr1 0.643874 0.558448 0.45016  1.51615569444
 Sr1 0.14419 0.449894 0.94094  1.51615569444
 Sr1 0.644191 0.449894 0.94094  1.51615569444
 Sr1 0.144033 0.049147 0.55854  1.51615569444
 Sr1 0.644035 0.049148 0.55854  1.51615569444
 C1 0.310127 0.985082 0.1933  0.665295694444
 C1 0.810129 0.985082 0.1933  0.665295694444
 C2 0.397373 0.986859 0.19314  0.194915694444
 C2 0.897375 0.98686 0.19314  0.194915694444
 C1 0.310073 0.514994 0.30694  0.665295694444
 C1 0.810074 0.514994 0.30694  0.665295694444
 C2 0.397311 0.512997 0.30701  0.194915694444
 C2 0.897312 0.512995 0.30701  0.194915694444
 C1 0.310297 0.307147 0.98695  0.665295694444
 C1 0.810299 0.307147 0.98695  0.665295694444
 C2 0.397523 0.307133 0.9889  0.194915694444
 C2 0.897524 0.307133 0.98897  0.194915694444
 C1 0.310219 0.193762 0.51493  0.665295694444
 C1 0.810221 0.193764 0.51493  0.665295694444
 C2 0.397465 0.19333 0.51224  0.194915694444
 C2 0.897466 0.193331 0.51224  0.194915694444
 C1 0.189867 0.01491 0.80656  0.665295694444
 C1 0.689868 0.01491 0.80656  0.665295694444
 C2 0.102621 0.013137 0.80680  0.194915694444
 C2 0.602622 0.013138 0.80680  0.194915694444
 C1 0.189919 0.485002 0.6930  0.665295694444
 C1 0.689921 0.485001 0.6930  0.665295694444
 C2 0.102681 0.487008 0.69295  0.194915694444
 C2 0.602682 0.487006 0.69295  0.194915694444
 C1 0.189695 0.692845 0.01300  0.665295694444
 C1 0.689696 0.692844 0.01300  0.665295694444
 C2 0.10247 0.692859 0.0109  0.194915694444
 C2 0.602471 0.692859 0.01097  0.194915694444
 C1 0.189776 0.806252 0.48501  0.665295694444
 C1 0.689777 0.806253 0.48501  0.665295694444
 C2 0.10253 0.806682 0.4877  0.194915694444
 C2 0.602532 0.806683 0.48771  0.194915694444
 N1 0.442078 0.0 0.11217  -0.357369305556
 N1 0.942079 0.0 0.11217  -0.357369305556
 N1 0.441305 0.9671 0.27529  -0.357369305556
 N1 0.941307 0.967102 0.27529  -0.357369305556
 N2 0.016536 0.99719 0.14647  -0.159723055556
 N2 0.516537 0.997188 0.14647  -0.159723055556
 N3 0.016358 0.973818 0.24443  -0.105094305556
 N3 0.516359 0.973815 0.24443  -0.105094305556
 N1 0.442063 0.493639 0.38786  -0.357369305556
 N1 0.942065 0.493638 0.38786  -0.357369305556
 N1 0.441185 0.533004 0.22490  -0.357369305556
 N1 0.941187 0.533001 0.22490  -0.357369305556
 N2 0.016496 0.502127 0.35352  -0.159723055556
 N2 0.516496 0.502129 0.35352  -0.159723055556
 N3 0.016254 0.525888 0.25566  -0.105094305556
 N3 0.516255 0.525891 0.25566  -0.105094305556
 N1 0.442155 0.387949 0.  -0.357369305556
 N1 0.942156 0.387949 0.  -0.357369305556
 N1 0.441497 0.225055 0.96890  -0.357369305556
 N1 0.941498 0.225055 0.96890  -0.357369305556
 N2 0.016641 0.353617 0.99957  -0.159723055556
 N2 0.516642 0.353618 0.99957  -0.159723055556
 N3 0.016521 0.255797 0.97586  -0.105094305556
 N3 0.516522 0.255798 0.97586  -0.105094305556
 N1 0.442059 0.112397 0.49237  -0.357369305556
 N1 0.94206 0.112398 0.49237  -0.357369305556
 N1 0.441511 0.275167 0.53208  -0.357369305556
 N1 0.941513 0.275168 0.53208  -0.357369305556
 N2 0.016571 0.146399 0.50038  -0.159723055556
 N2 0.516572 0.146398 0.50038  -0.159723055556
 N3 0.016518 0.244159 0.52432  -0.105094305556
 N3 0.516519 0.244158 0.52432  -0.105094305556
 N1 0.057917 0.994241 0.88777  -0.357369305556
 N1 0.557918 0.994241 0.88777  -0.357369305556
 N1 0.058689 0.032902 0.72465  -0.357369305556
 N1 0.55869 0.032903 0.72465  -0.357369305556
 N2 0.483459 0.002811 0.85347  -0.159723055556
 N2 0.98346 0.002809 0.85347  -0.159723055556
 N3 0.483637 0.02619 0.75552  -0.105094305556
 N3 0.983637 0.026188 0.75552  -0.105094305556
 N1 0.05793 0.506373 0.61210  -0.357369305556
 N1 0.557931 0.506371 0.61210  -0.357369305556
 N1 0.058805 0.467002 0.77505  -0.357369305556
 N1 0.558807 0.466999 0.77505  -0.357369305556
 N2 0.483498 0.497886 0.64644  -0.159723055556
 N2 0.983498 0.497888 0.64644  -0.159723055556
 N3 0.483738 0.474119 0.74430  -0.105094305556
 N3 0.983739 0.474123 0.74430  -0.105094305556
 N1 0.057837 0.612043 0.9917  -0.357369305556
 N1 0.557838 0.612042 0.99175  -0.357369305556
 N1 0.058496 0.774938 0.0310  -0.357369305556
 N1 0.558497 0.774937 0.03104  -0.357369305556
 N2 0.483351 0.646374 0.00039  -0.159723055556
 N2 0.983352 0.646375 0.00039  -0.159723055556
 N3 0.483472 0.744195 0.02409  -0.105094305556
 N3 0.983473 0.744196 0.02409  -0.105094305556
 N1 0.057936 0.887614 0.50758  -0.357369305556
 N1 0.557937 0.887615 0.50758  -0.357369305556
 N1 0.058485 0.724842 0.4678  -0.357369305556
 N1 0.558487 0.724843 0.46788  -0.357369305556
 N2 0.483424 0.853612 0.49957  -0.159723055556
 N2 0.983425 0.853611 0.49957  -0.159723055556
 N3 0.483479 0.75585 0.47564  -0.105094305556
 N3 0.983479 0.755849 0.47564  -0.105094305556
 O1 0.276466 0.0 0.1084  -0.723336805556
 O1 0.776467 0.0 0.10846  -0.723336805556
 O2 0.275882 0.964398 0.27499  -0.673474305556
 O2 0.775884 0.964398 0.27499  -0.673474305556
 O1 0.276464 0.493856 0.39143  -0.723336805556
 O1 0.776465 0.493857 0.39143  -0.723336805556
 O2 0.2757 0.537593 0.22591  -0.673474305556
 O2 0.775701 0.537593 0.22591  -0.673474305556
 O1 0.276512 0.391614 0.  -0.723336805556
 O1 0.776513 0.391614 0.  -0.723336805556
 O2 0.276032 0.226211 0.96444  -0.673474305556
 O2 0.776033 0.22621 0.96444  -0.673474305556
 O1 0.276415 0.109394 0.49431  -0.723336805556
 O1 0.776416 0.109395 0.49431  -0.723336805556
 O2 0.276096 0.274962 0.53753  -0.673474305556
 O2 0.776097 0.274963 0.53753  -0.673474305556
 O1 0.223529 0.995639 0.89149  -0.723336805556
 O1 0.72353 0.995639 0.89149  -0.723336805556
 O2 0.224112 0.035595 0.72496  -0.673474305556
 O2 0.724113 0.035596 0.72496  -0.673474305556
 O1 0.223529 0.506139 0.60853  -0.723336805556
 O1 0.72353 0.50614 0.60853  -0.723336805556
 O2 0.224291 0.462396 0.7740  -0.673474305556
 O2 0.724292 0.462396 0.7740  -0.673474305556
 O1 0.223481 0.608379 0.99209  -0.723336805556
 O1 0.723482 0.608379 0.99209  -0.723336805556
 O2 0.22396 0.773779 0.03552  -0.673474305556
 O2 0.723961 0.773779 0.0355  -0.673474305556
 O1 0.223578 0.890627 0.50562  -0.723336805556
 O1 0.72358 0.890629 0.50562  -0.723336805556
 O2 0.223901 0.725048 0.46243  -0.673474305556
 O2 0.723902 0.72505 0.46243  -0.673474305556
