#======================================================================

# CRYSTAL DATA

#----------------------------------------------------------------------

data_VESTA_phase_1


_pd_phase_name                         MOF
_cell_length_a                         17.31900
_cell_length_b                         14.16600
_cell_length_c                         14.16900
_cell_angle_alpha                      120.10900
_cell_angle_beta                       89.91200
_cell_angle_gamma                      89.91600
_symmetry_space_group_name_H-M         "P 1"
_symmetry_Int_Tables_number            1

loop_
_symmetry_equiv_pos_as_xyz
   "x, y, z"

loop_
   _atom_site_label
   _atom_site_fract_x
   _atom_site_fract_y
   _atom_site_fract_z
 _atom_site_charge
 Al1 0.22297 0.489239 0.09610  2.01156592949
 Al1 0.722967 0.489239 0.09610  2.01156592949
 Al1 0.223065 0.606139 0.50874  2.01156592949
 Al1 0.723062 0.606139 0.50874  2.01156592949
 Al1 0.222877 0.903036 0.39293  2.01156592949
 Al1 0.722874 0.903036 0.39293  2.01156592949
 Al1 0.472889 0.392961 0.90298  2.01156592949
 Al1 0.972887 0.392961 0.90298  2.01156592949
 Al1 0.472965 0.096086 0.48927  2.01156592949
 Al1 0.972963 0.096086 0.48927  2.01156592949
 Al1 0.473061 0.508824 0.60616  2.01156592949
 Al1 0.973059 0.508824 0.60616  2.01156592949
 Al2 0.258208 0.333487 0.6664  2.05372259615
 Al2 0.758205 0.333487 0.6664  2.05372259615
 Al2 0.008209 0.666411 0.33343  2.05372259615
 Al2 0.508206 0.666411 0.33343  2.05372259615
 P1 0.152526 0.349332 0.86309  1.84118926282
 P1 0.652524 0.349332 0.86309  1.84118926282
 P1 0.386142 0.189051 0.7185  1.84118926282
 P1 0.88614 0.189051 0.7185  1.84118926282
 P1 0.15251 0.514137 0.64951  1.84118926282
 P1 0.652507 0.514137 0.64951  1.84118926282
 P1 0.386654 0.530349 0.81179  1.84118926282
 P1 0.886651 0.530349 0.81179  1.84118926282
 P1 0.152056 0.136225 0.48544  1.84118926282
 P1 0.652053 0.136225 0.48544  1.84118926282
 P1 0.386842 0.280051 0.46863  1.84118926282
 P1 0.886839 0.280051 0.46863  1.84118926282
 P1 0.402065 0.485375 0.13615  1.84118926282
 P1 0.902063 0.485375 0.13615  1.84118926282
 P1 0.136853 0.468543 0.28001  1.84118926282
 P1 0.636851 0.468543 0.28001  1.84118926282
 P1 0.402512 0.863072 0.34931  1.84118926282
 P1 0.902509 0.863072 0.34931  1.84118926282
 P1 0.136129 0.718595 0.18907  1.84118926282
 P1 0.636126 0.718595 0.18907  1.84118926282
 P1 0.402503 0.649473 0.51403  1.84118926282
 P1 0.9025 0.649473 0.51403  1.84118926282
 P1 0.136641 0.81177 0.53025  1.84118926282
 P1 0.636639 0.81177 0.53025  1.84118926282
 H1 0.109738 0.184336 0.85  0.208398151709
 H1 0.609736 0.184336 0.85  0.208398151709
 H1 0.192516 0.163534 0.76879  0.208398151709
 H1 0.692514 0.163534 0.76879  0.208398151709
 H1 0.099587 0.179752 0.72564  0.208398151709
 H1 0.599584 0.179752 0.72564  0.208398151709
 H1 0.400634 0.051422 0.76904  0.208398151709
 H1 0.900632 0.051422 0.76904  0.208398151709
 H1 0.310549 0.04116 0.70337  0.208398151709
 H1 0.810546 0.04116 0.70337  0.208398151709
 H1 0.324351 0.145625 0.84299  0.208398151709
 H1 0.824349 0.145625 0.84299  0.208398151709
 H1 0.107825 0.669226 0.81467  0.208398151709
 H1 0.607823 0.669226 0.81467  0.208398151709
 H1 0.191881 0.606983 0.83521  0.208398151709
 H1 0.691878 0.606983 0.83521  0.208398151709
 H1 0.099975 0.545106 0.8190  0.208398151709
 H1 0.599972 0.545107 0.8190  0.208398151709
 H1 0.400393 0.71897 0.94939  0.208398151709
 H1 0.90039 0.71897 0.94939  0.208398151709
 H1 0.310647 0.663045 0.96011  0.208398151709
 H1 0.810644 0.663045 0.96011  0.208398151709
 H1 0.324023 0.698128 0.85572  0.208398151709
 H1 0.82402 0.698128 0.85572  0.208398151709
 H1 0.106695 0.146742 0.33133  0.208398151709
 H1 0.606693 0.146742 0.33133  0.208398151709
 H1 0.191203 0.228582 0.39215  0.208398151709
 H1 0.6912 0.228582 0.39215  0.208398151709
 H1 0.099681 0.275536 0.45569  0.208398151709
 H1 0.599679 0.275536 0.45569  0.208398151709
 H1 0.397832 0.231259 0.28059  0.208398151709
 H1 0.897829 0.231259 0.28059  0.208398151709
 H1 0.309103 0.299855 0.34046  0.208398151709
 H1 0.8091 0.299856 0.34046  0.208398151709
 H1 0.321448 0.159228 0.30257  0.208398151709
 H1 0.821445 0.159228 0.30257  0.208398151709
 H1 0.356685 0.331185 0.14658  0.208398151709
 H1 0.856682 0.331185 0.14658  0.208398151709
 H1 0.441244 0.391912 0.22831  0.208398151709
 H1 0.941242 0.391912 0.22831  0.208398151709
 H1 0.349757 0.455529 0.2754  0.208398151709
 H1 0.849754 0.455529 0.2754  0.208398151709
 H1 0.147881 0.280477 0.23125  0.208398151709
 H1 0.647879 0.280477 0.23125  0.208398151709
 H1 0.05912 0.340303 0.29977  0.208398151709
 H1 0.559117 0.340303 0.29977  0.208398151709
 H1 0.07152 0.302405 0.15918  0.208398151709
 H1 0.571517 0.302405 0.15918  0.208398151709
 H1 0.359725 0.854034 0.18438  0.208398151709
 H1 0.859722 0.854034 0.18438  0.208398151709
 H1 0.442494 0.768791 0.16355  0.208398151709
 H1 0.942492 0.76879 0.16355  0.208398151709
 H1 0.349561 0.725636 0.17977  0.208398151709
 H1 0.849558 0.725636 0.17977  0.208398151709
 H1 0.150554 0.768991 0.05140  0.208398151709
 H1 0.650551 0.768991 0.05140  0.208398151709
 H1 0.060512 0.703221 0.04118  0.208398151709
 H1 0.560509 0.703221 0.04118  0.208398151709
 H1 0.074245 0.842906 0.14556  0.208398151709
 H1 0.574242 0.842906 0.14556  0.208398151709
 H1 0.357832 0.814692 0.66905  0.208398151709
 H1 0.857829 0.814692 0.66905  0.208398151709
 H1 0.441846 0.835228 0.60673  0.208398151709
 H1 0.941843 0.835228 0.60673  0.208398151709
 H1 0.349914 0.819039 0.54493  0.208398151709
 H1 0.849911 0.819039 0.54493  0.208398151709
 H1 0.150369 0.949342 0.71886  0.208398151709
 H1 0.650366 0.949343 0.71886  0.208398151709
 H1 0.060617 0.960063 0.66297  0.208398151709
 H1 0.560614 0.960063 0.66297  0.208398151709
 H1 0.074016 0.855597 0.69796  0.208398151709
 H1 0.574014 0.855597 0.69796  0.208398151709
 C1 0.136789 0.205196 0.79677  -0.826292403846
 C1 0.636786 0.205196 0.79677  -0.826292403846
 C1 0.352235 0.098063 0.76294  -0.826292403846
 C1 0.852232 0.098063 0.76294  -0.826292403846
 C1 0.13615 0.591761 0.79366  -0.826292403846
 C1 0.636147 0.591761 0.79366  -0.826292403846
 C1 0.352197 0.665838 0.90301  -0.826292403846
 C1 0.852194 0.665838 0.90301  -0.826292403846
 C1 0.135504 0.202872 0.40830  -0.826292403846
 C1 0.635501 0.202873 0.40830  -0.826292403846
 C1 0.350313 0.238394 0.33506  -0.826292403846
 C1 0.85031 0.238395 0.33506  -0.826292403846
 C1 0.385534 0.408138 0.20270  -0.826292403846
 C1 0.885531 0.408137 0.20270  -0.826292403846
 C1 0.100351 0.334923 0.23835  -0.826292403846
 C1 0.600349 0.334923 0.23835  -0.826292403846
 C1 0.386772 0.796779 0.20521  -0.826292403846
 C1 0.886769 0.796779 0.20521  -0.826292403846
 C1 0.102172 0.762872 0.09805  -0.826292403846
 C1 0.602169 0.762872 0.09805  -0.826292403846
 C1 0.386124 0.79365 0.59157  -0.826292403846
 C1 0.886121 0.79365 0.59157  -0.826292403846
 C1 0.102181 0.902949 0.66572  -0.826292403846
 C1 0.602178 0.902949 0.66572  -0.826292403846
 O1 0.193352 0.383103 0.79032  -0.996053792735
 O1 0.69335 0.383103 0.79032  -0.996053792735
 O1 0.199895 0.377953 0.96753  -0.996053792735
 O1 0.699892 0.377953 0.96753  -0.996053792735
 O1 0.073063 0.40879 0.89916  -0.996053792735
 O1 0.57306 0.40879 0.89916  -0.996053792735
 O1 0.319504 0.257288 0.71815  -0.996053792735
 O1 0.819501 0.257288 0.71815  -0.996053792735
 O1 0.423903 0.114686 0.60568  -0.996053792735
 O1 0.9239 0.114686 0.60568  -0.996053792735
 O1 0.451136 0.259323 0.79885  -0.996053792735
 O1 0.951133 0.259323 0.79885  -0.996053792735
 O1 0.196526 0.409581 0.61549  -0.996053792735
 O1 0.696524 0.409581 0.61549  -0.996053792735
 O1 0.196932 0.59236 0.62110  -0.996053792735
 O1 0.69693 0.59236 0.62110  -0.996053792735
 O1 0.073129 0.486877 0.58998  -0.996053792735
 O1 0.573126 0.486877 0.58998  -0.996053792735
 O1 0.31999 0.460756 0.74523  -0.996053792735
 O1 0.819987 0.460756 0.74523  -0.996053792735
 O1 0.426213 0.493267 0.88592  -0.996053792735
 O1 0.926211 0.493267 0.88592  -0.996053792735
 O1 0.450656 0.540291 0.74008  -0.996053792735
 O1 0.950654 0.540291 0.74008  -0.996053792735
 O1 0.196404 0.206796 0.58925  -0.996053792735
 O1 0.696401 0.206796 0.58925  -0.996053792735
 O1 0.196306 0.029068 0.40659  -0.996053792735
 O1 0.696303 0.029068 0.40659  -0.996053792735
 O1 0.0727 0.104814 0.51393  -0.996053792735
 O1 0.572698 0.104814 0.51393  -0.996053792735
 O1 0.321798 0.283532 0.54090  -0.996053792735
 O1 0.821795 0.283532 0.54090  -0.996053792735
 O1 0.426798 0.391093 0.50602  -0.996053792735
 O1 0.926795 0.391093 0.50602  -0.996053792735
 O1 0.450399 0.196049 0.454  -0.996053792735
 O1 0.950397 0.196049 0.454  -0.996053792735
 O1 0.44643 0.589187 0.20673  -0.996053792735
 O1 0.946427 0.589187 0.20673  -0.996053792735
 O1 0.446287 0.406551 0.02897  -0.996053792735
 O1 0.946284 0.406551 0.02897  -0.996053792735
 O1 0.322701 0.513924 0.1048  -0.996053792735
 O1 0.822698 0.513924 0.1048  -0.996053792735
 O1 0.0718 0.540802 0.28347  -0.996053792735
 O1 0.571797 0.540802 0.28347  -0.996053792735
 O1 0.176796 0.505968 0.39104  -0.996053792735
 O1 0.676793 0.505968 0.39104  -0.996053792735
 O1 0.20041 0.454211 0.1960  -0.996053792735
 O1 0.700408 0.454212 0.19602  -0.996053792735
 O1 0.44334 0.79027 0.38305  -0.996053792735
 O1 0.943337 0.79027 0.38305  -0.996053792735
 O1 0.449887 0.96754 0.37796  -0.996053792735
 O1 0.949884 0.96754 0.37796  -0.996053792735
 O1 0.323043 0.899127 0.40875  -0.996053792735
 O1 0.82304 0.899127 0.40875  -0.996053792735
 O1 0.069513 0.71816 0.25732  -0.996053792735
 O1 0.569511 0.71816 0.25732  -0.996053792735
 O1 0.173913 0.605691 0.11475  -0.996053792735
 O1 0.67391 0.605691 0.11475  -0.996053792735
 O1 0.201102 0.798955 0.25930  -0.996053792735
 O1 0.701099 0.798955 0.25930  -0.996053792735
 O1 0.446515 0.615379 0.40947  -0.996053792735
 O1 0.946512 0.615379 0.40947  -0.996053792735
 O1 0.446934 0.621146 0.59229  -0.996053792735
 O1 0.946931 0.621146 0.59229  -0.996053792735
 O1 0.32313 0.589904 0.48680  -0.996053792735
 O1 0.823127 0.589904 0.48680  -0.996053792735
 O1 0.069977 0.745181 0.46069  -0.996053792735
 O1 0.569974 0.745181 0.46069  -0.996053792735
 O1 0.176163 0.885959 0.49319  -0.996053792735
 O1 0.676161 0.885959 0.49319  -0.996053792735
 O1 0.200678 0.740067 0.54014  -0.996053792735
 O1 0.700675 0.740067 0.54014  -0.996053792735
