#======================================================================

# CRYSTAL DATA

#----------------------------------------------------------------------

data_VESTA_phase_1


_pd_phase_name                         MOF
_cell_length_a                         16.11100
_cell_length_b                         16.58900
_cell_length_c                         19.56400
_cell_angle_alpha                      90.02800
_cell_angle_beta                       90.00000
_cell_angle_gamma                      89.99100
_symmetry_space_group_name_H-M         "P 1"
_symmetry_Int_Tables_number            1

loop_
_symmetry_equiv_pos_as_xyz
   "x, y, z"

loop_
   _atom_site_label
   _atom_site_fract_x
   _atom_site_fract_y
   _atom_site_fract_z
 _atom_site_charge
 In1 0.526416 0.260185 0.0206  1.57006468085
 In2 0.274202 0.929785 0.81769  1.49665468085
 In1 0.973616 0.239788 0.0207  1.57006468085
 In2 0.2257 0.570209 0.81783  1.49665468085
 In1 0.47366 0.760309 0.47943  1.57006468085
 In2 0.725612 0.429689 0.68206  1.49665468085
 In1 0.026396 0.739765 0.47948  1.57006468085
 In2 0.774285 0.070339 0.68223  1.49665468085
 In1 0.473548 0.739832 0.97939  1.57006468085
 In2 0.725763 0.070237 0.18233  1.49665468085
 In1 0.026349 0.760229 0.97931  1.57006468085
 In2 0.774263 0.429813 0.18219  1.49665468085
 In1 0.526305 0.239715 0.52061  1.57006468085
 In2 0.274358 0.570334 0.31796  1.49665468085
 In1 0.973566 0.26026 0.52054  1.57006468085
 In2 0.225682 0.929686 0.31780  1.49665468085
 H1 0.201893 0.943354 0.07866  0.108150236407
 H1 0.295528 0.057551 0.11002  0.108150236407
 H1 0.393236 0.051256 0.90509  0.108150236407
 H1 0.013132 0.040743 0.6964  0.108150236407
 H1 0.956914 0.131668 0.78892  0.108150236407
 H1 0.173763 0.075212 0.90834  0.108150236407
 H1 0.408541 0.104733 0.60344  0.108150236407
 H1 0.572166 0.237374 0.78391  0.108150236407
 H1 0.467926 0.133982 0.8173  0.108150236407
 H1 0.298014 0.556747 0.07880  0.108150236407
 H1 0.204429 0.442541 0.11010  0.108150236407
 H1 0.106554 0.448844 0.90523  0.108150236407
 H1 0.486963 0.459304 0.69675  0.108150236407
 H1 0.543031 0.368317 0.78914  0.108150236407
 H1 0.326094 0.424773 0.90846  0.108150236407
 H1 0.091288 0.395366 0.60341  0.108150236407
 H1 0.927905 0.262549 0.78384  0.108150236407
 H1 0.032237 0.365895 0.81731  0.108150236407
 H1 0.797894 0.443268 0.42104  0.108150236407
 H1 0.704306 0.557539 0.38984  0.108150236407
 H1 0.606396 0.550989 0.5947  0.108150236407
 H1 0.986536 0.540739 0.80340  0.108150236407
 H1 0.042623 0.631813 0.71107  0.108150236407
 H1 0.826006 0.575003 0.59146  0.108150236407
 H1 0.59143 0.604857 0.89655  0.108150236407
 H1 0.427873 0.737462 0.71611  0.108150236407
 H1 0.532237 0.634138 0.68266  0.108150236407
 H1 0.701907 0.056671 0.42126  0.108150236407
 H1 0.795536 0.942426 0.3899  0.108150236407
 H1 0.893452 0.948984 0.59482  0.108150236407
 H1 0.513518 0.9593 0.8037  0.108150236407
 H1 0.457287 0.868303 0.71133  0.108150236407
 H1 0.673737 0.925082 0.59158  0.108150236407
 H1 0.908368 0.895087 0.89650  0.108150236407
 H1 0.072216 0.762657 0.71602  0.108150236407
 H1 0.96788 0.866016 0.68263  0.108150236407
 H1 0.798068 0.056669 0.92137  0.108150236407
 H1 0.704436 0.942468 0.89001  0.108150236407
 H1 0.606723 0.948771 0.0949  0.108150236407
 H1 0.986836 0.959297 0.30355  0.108150236407
 H1 0.043059 0.868373 0.21110  0.108150236407
 H1 0.826206 0.924817 0.09168  0.108150236407
 H1 0.591429 0.895293 0.39658  0.108150236407
 H1 0.427796 0.762656 0.21612  0.108150236407
 H1 0.532041 0.866043 0.18270  0.108150236407
 H1 0.701955 0.443271 0.9212  0.108150236407
 H1 0.795541 0.557477 0.88992  0.108150236407
 H1 0.893403 0.551185 0.09479  0.108150236407
 H1 0.513006 0.540728 0.30328  0.108150236407
 H1 0.456937 0.631713 0.21089  0.108150236407
 H1 0.673868 0.575253 0.09156  0.108150236407
 H1 0.90868 0.604661 0.39661  0.108150236407
 H1 0.072059 0.737482 0.21618  0.108150236407
 H1 0.967731 0.634133 0.18271  0.108150236407
 H1 0.202073 0.556765 0.57898  0.108150236407
 H1 0.295658 0.442493 0.61018  0.108150236407
 H1 0.393579 0.449043 0.40532  0.108150236407
 H1 0.01343 0.4593 0.19662  0.108150236407
 H1 0.957343 0.368222 0.28895  0.108150236407
 H1 0.17396 0.425029 0.40856  0.108150236407
 H1 0.40853 0.395165 0.10347  0.108150236407
 H1 0.572095 0.262568 0.28391  0.108150236407
 H1 0.467732 0.365894 0.31736  0.108150236407
 H1 0.298057 0.943352 0.57877  0.108150236407
 H1 0.204427 0.057594 0.61009  0.108150236407
 H1 0.106524 0.051053 0.40521  0.108150236407
 H1 0.486453 0.040731 0.19633  0.108150236407
 H1 0.542681 0.131729 0.2887  0.108150236407
 H1 0.326227 0.074954 0.40845  0.108150236407
 H1 0.091589 0.104933 0.10353  0.108150236407
 H1 0.927751 0.237375 0.28401  0.108150236407
 H1 0.032083 0.134014 0.31740  0.108150236407
 C1 0.186693 0.87508 0.94881  0.649098014184
 C2 0.245437 0.939937 0.97452  0.103848014184
 C3 0.244308 0.968816 0.04123  -0.0190319858156
 C3 0.297793 0.031702 0.05905  -0.0190319858156
 C4 0.353436 0.062244 0.01083  -0.192085319149
 C5 0.352026 0.029455 0.9450  0.213691347518
 C1 0.410871 0.130768 0.02903  0.649098014184
 C1 0.146235 0.93956 0.70792  0.649098014184
 C2 0.118948 0.00686 0.75606  0.103848014184
 C3 0.046413 0.05044 0.74407  -0.0190319858156
 C3 0.016145 0.100974 0.79510  -0.0190319858156
 C4 0.061056 0.109679 0.8559  -0.192085319149
 C5 0.136118 0.068416 0.8624  0.213691347518
 C1 0.029333 0.159098 0.91395  0.649098014184
 C1 0.364885 0.048788 0.72871  0.649098014184
 C4 0.42907 0.11215 0.71300  -0.192085319149
 C5 0.443079 0.133501 0.64463  0.213691347518
 C2 0.54267 0.227924 0.67663  0.103848014184
 C3 0.533658 0.208578 0.74539  -0.0190319858156
 C3 0.475525 0.150285 0.76385  -0.0190319858156
 C1 0.599909 0.293877 0.65336  0.649098014184
 C1 0.313194 0.624953 0.94896  0.649098014184
 C2 0.254432 0.560134 0.97467  0.103848014184
 C3 0.255579 0.531283 0.04137  -0.0190319858156
 C3 0.202111 0.468395 0.05916  -0.0190319858156
 C4 0.146442 0.437846 0.01093  -0.192085319149
 C5 0.147807 0.470638 0.94515  0.213691347518
 C1 0.08907 0.369271 0.0290  0.649098014184
 C1 0.353811 0.560417 0.70816  0.649098014184
 C2 0.381065 0.49315 0.75628  0.103848014184
 C3 0.453621 0.449582 0.74430  -0.0190319858156
 C3 0.483824 0.399022 0.795  -0.0190319858156
 C4 0.438844 0.39031 0.85610  -0.192085319149
 C5 0.363779 0.431573 0.86263  0.213691347518
 C1 0.470541 0.340883 0.91405  0.649098014184
 C1 0.135092 0.451207 0.72875  0.649098014184
 C4 0.070912 0.387846 0.71299  -0.192085319149
 C5 0.05682 0.366556 0.64460  0.213691347518
 C2 0.957263 0.272087 0.67656  0.103848014184
 C3 0.966363 0.291373 0.74533  -0.0190319858156
 C3 0.024546 0.349647 0.76383  -0.0190319858156
 C1 0.89999 0.206145 0.65326  0.649098014184
 C1 0.813133 0.37498 0.55088  0.649098014184
 C2 0.754322 0.439778 0.52519  0.103848014184
 C3 0.755458 0.468689 0.45849  -0.0190319858156
 C3 0.701987 0.531609 0.44075  -0.0190319858156
 C4 0.64632 0.562112 0.48901  -0.192085319149
 C5 0.647665 0.529236 0.55478  0.213691347518
 C1 0.588995 0.630746 0.47091  0.649098014184
 C1 0.853559 0.439492 0.79185  0.649098014184
 C2 0.880802 0.506774 0.74375  0.103848014184
 C3 0.953269 0.550422 0.75581  -0.0190319858156
 C3 0.983461 0.601022 0.7048  -0.0190319858156
 C4 0.938581 0.609664 0.64398  -0.192085319149
 C5 0.863613 0.568287 0.63735  0.213691347518
 C1 0.970328 0.659122 0.58608  0.649098014184
 C1 0.635142 0.548845 0.77124  0.649098014184
 C4 0.570983 0.612264 0.78698  -0.192085319149
 C5 0.55691 0.633607 0.85536  0.213691347518
 C2 0.45728 0.728009 0.82339  0.103848014184
 C3 0.466369 0.708682 0.75463  -0.0190319858156
 C3 0.524565 0.65042 0.73614  -0.0190319858156
 C1 0.399947 0.793929 0.84668  0.649098014184
 C1 0.686719 0.124997 0.55111  0.649098014184
 C2 0.745517 0.060179 0.52540  0.103848014184
 C3 0.744363 0.031256 0.45868  -0.0190319858156
 C3 0.797847 0.968349 0.44088  -0.0190319858156
 C4 0.853533 0.937862 0.48910  -0.192085319149
 C5 0.852183 0.970729 0.55491  0.213691347518
 C1 0.91091 0.869268 0.47094  0.649098014184
 C1 0.646486 0.060571 0.79211  0.649098014184
 C2 0.619164 0.993282 0.74398  0.103848014184
 C3 0.546707 0.949641 0.75606  -0.0190319858156
 C3 0.516426 0.899071 0.70507  -0.0190319858156
 C4 0.561219 0.890429 0.64415  -0.192085319149
 C5 0.636191 0.931795 0.6375  0.213691347518
 C1 0.529446 0.840959 0.58621  0.649098014184
 C1 0.864805 0.951179 0.77126  0.649098014184
 C4 0.928975 0.887777 0.78695  -0.192085319149
 C5 0.942963 0.866374 0.85531  0.213691347518
 C2 0.042679 0.772023 0.82329  0.103848014184
 C3 0.033671 0.791406 0.75455  -0.0190319858156
 C3 0.975467 0.849683 0.73609  -0.0190319858156
 C1 0.099963 0.706079 0.84655  0.649098014184
 C1 0.813274 0.124934 0.05122  0.649098014184
 C2 0.754523 0.060085 0.0255  0.103848014184
 C3 0.755652 0.031206 0.95879  -0.0190319858156
 C3 0.702168 0.968319 0.94097  -0.0190319858156
 C4 0.646525 0.937778 0.989  -0.192085319149
 C5 0.647933 0.97057 0.05501  0.213691347518
 C1 0.589097 0.869247 0.97100  0.649098014184
 C1 0.853725 0.060464 0.29211  0.649098014184
 C2 0.881017 0.99317 0.24397  0.103848014184
 C3 0.953555 0.949595 0.25596  -0.0190319858156
 C3 0.983827 0.899064 0.20492  -0.0190319858156
 C4 0.938914 0.890354 0.14407  -0.192085319149
 C5 0.863851 0.931615 0.13754  0.213691347518
 C1 0.970635 0.840923 0.08608  0.649098014184
 C1 0.635088 0.951228 0.27131  0.649098014184
 C4 0.570894 0.887877 0.2870  -0.192085319149
 C5 0.556888 0.866527 0.35540  0.213691347518
 C2 0.4573 0.7721 0.323  0.103848014184
 C3 0.466306 0.79145 0.25464  -0.0190319858156
 C3 0.52444 0.849742 0.2361  -0.0190319858156
 C1 0.400061 0.706147 0.34667  0.649098014184
 C1 0.686775 0.375061 0.05106  0.649098014184
 C2 0.745533 0.439886 0.02535  0.103848014184
 C3 0.744388 0.468736 0.95865  -0.0190319858156
 C3 0.797855 0.531625 0.94086  -0.0190319858156
 C4 0.853521 0.562175 0.98909  -0.192085319149
 C5 0.852152 0.529388 0.05488  0.213691347518
 C1 0.910898 0.630743 0.97094  0.649098014184
 C1 0.646159 0.439612 0.29187  0.649098014184
 C2 0.618906 0.506883 0.24375  0.103848014184
 C3 0.546348 0.550448 0.25573  -0.0190319858156
 C3 0.516141 0.601005 0.20473  -0.0190319858156
 C4 0.56112 0.609715 0.14392  -0.192085319149
 C5 0.636183 0.56845 0.13739  0.213691347518
 C1 0.529422 0.659136 0.08597  0.649098014184
 C1 0.86488 0.54881 0.27127  0.649098014184
 C4 0.929055 0.612179 0.28703  -0.192085319149
 C5 0.943146 0.633471 0.35542  0.213691347518
 C2 0.042702 0.727942 0.32346  0.103848014184
 C3 0.033601 0.708656 0.25469  -0.0190319858156
 C3 0.975419 0.650381 0.23619  -0.0190319858156
 C1 0.099976 0.793881 0.34676  0.649098014184
 C1 0.186832 0.625041 0.44914  0.649098014184
 C2 0.245648 0.560251 0.47483  0.103848014184
 C3 0.244512 0.531342 0.54153  -0.0190319858156
 C3 0.297981 0.468421 0.55927  -0.0190319858156
 C4 0.353649 0.437916 0.51102  -0.192085319149
 C5 0.352307 0.470795 0.4452  0.213691347518
 C1 0.410971 0.369276 0.52911  0.649098014184
 C1 0.146414 0.560534 0.20817  0.649098014184
 C2 0.119165 0.493259 0.2562  0.103848014184
 C3 0.046697 0.449614 0.24421  -0.0190319858156
 C3 0.016506 0.399011 0.29518  -0.0190319858156
 C4 0.061386 0.390366 0.3560  -0.192085319149
 C5 0.136353 0.431743 0.36267  0.213691347518
 C1 0.029641 0.340899 0.41394  0.649098014184
 C1 0.364821 0.451173 0.2287  0.649098014184
 C4 0.428984 0.38776 0.21304  -0.192085319149
 C5 0.443052 0.366414 0.14466  0.213691347518
 C2 0.542694 0.272024 0.17663  0.103848014184
 C3 0.5336 0.291348 0.24539  -0.0190319858156
 C3 0.475402 0.349607 0.26388  -0.0190319858156
 C1 0.60002 0.206097 0.15334  0.649098014184
 C1 0.313244 0.875022 0.44892  0.649098014184
 C2 0.25445 0.939845 0.47463  0.103848014184
 C3 0.255603 0.968767 0.54135  -0.0190319858156
 C3 0.202119 0.031674 0.55915  -0.0190319858156
 C4 0.146434 0.062162 0.51093  -0.192085319149
 C5 0.147791 0.029303 0.44512  0.213691347518
 C1 0.089055 0.130752 0.52909  0.649098014184
 C1 0.353482 0.93946 0.20792  0.649098014184
 C2 0.380799 0.006755 0.25604  0.103848014184
 C3 0.453261 0.050391 0.24397  -0.0190319858156
 C3 0.483543 0.100959 0.29497  -0.0190319858156
 C4 0.438747 0.109603 0.35588  -0.192085319149
 C5 0.363775 0.068236 0.3625  0.213691347518
 C1 0.470521 0.159063 0.4138  0.649098014184
 C1 0.135155 0.048839 0.22877  0.649098014184
 C4 0.070989 0.112249 0.21308  -0.192085319149
 C5 0.056998 0.133648 0.14472  0.213691347518
 C2 0.957285 0.228003 0.17674  0.103848014184
 C3 0.966294 0.208623 0.24548  -0.0190319858156
 C3 0.024497 0.150345 0.26394  -0.0190319858156
 C1 0.900001 0.293945 0.1534  0.649098014184
 N1 0.298315 0.971059 0.9274  -0.395688652482
 N1 0.163362 0.017939 0.81387  -0.395688652482
 N1 0.49871 0.189887 0.6273  -0.395688652482
 N1 0.201521 0.529017 0.92756  -0.395688652482
 N1 0.336579 0.482053 0.81405  -0.395688652482
 N1 0.0 0.310162 0.62726  -0.395688652482
 N1 0.701399 0.470846 0.57232  -0.395688652482
 N1 0.836417 0.517795 0.68592  -0.395688652482
 N1 0.501228 0.689979 0.87269  -0.395688652482
 N1 0.798448 0.029119 0.57250  -0.395688652482
 N1 0.663461 0.982271 0.68610  -0.395688652482
 N1 0.998664 0.810006 0.87261  -0.395688652482
 N1 0.701644 0.028967 0.07261  -0.395688652482
 N1 0.836607 0.982093 0.18615  -0.395688652482
 N1 0.501261 0.810136 0.3727  -0.395688652482
 N1 0.798439 0.471008 0.07246  -0.395688652482
 N1 0.663385 0.51797 0.18597  -0.395688652482
 N1 0.998808 0.689866 0.37276  -0.395688652482
 N1 0.298573 0.529182 0.42770  -0.395688652482
 N1 0.16355 0.482236 0.31411  -0.395688652482
 N1 0.498736 0.310043 0.12733  -0.395688652482
 N1 0.201527 0.970914 0.42753  -0.395688652482
 N1 0.336506 0.017759 0.31393  -0.395688652482
 N1 0.0 0.190016 0.12742  -0.395688652482
 O1 0.191429 0.854394 0.88639  -0.596150874704
 O1 0.135309 0.846815 0.99200  -0.596150874704
 O2 0.406386 0.163368 0.08623  -0.548135319149
 O1 0.462474 0.153347 0.98121  -0.596150874704
 O1 0.204694 0.892031 0.72990  -0.596150874704
 O2 0.108369 0.931339 0.65340  -0.548135319149
 O1 0.970185 0.208291 0.90431  -0.596150874704
 O1 0.062366 0.149464 0.97337  -0.596150874704
 O1 0.367335 0.020638 0.79110  -0.596150874704
 O2 0.315711 0.027434 0.68357  -0.548135319149
 O1 0.638928 0.330533 0.70070  -0.596150874704
 O1 0.605163 0.311948 0.5903  -0.596150874704
 O1 0.308442 0.645603 0.88655  -0.596150874704
 O1 0.36462 0.653227 0.99214  -0.596150874704
 O2 0.09363 0.336635 0.08624  -0.548135319149
 O1 0.037452 0.346652 0.98127  -0.596150874704
 O1 0.295308 0.607928 0.73011  -0.596150874704
 O2 0.391727 0.568603 0.65367  -0.548135319149
 O1 0.529623 0.291646 0.90433  -0.596150874704
 O1 0.437587 0.350538 0.97349  -0.596150874704
 O1 0.13263 0.479333 0.79117  -0.596150874704
 O2 0.184263 0.472582 0.68363  -0.548135319149
 O1 0.861024 0.169511 0.70062  -0.596150874704
 O1 0.89466 0.188081 0.59025  -0.596150874704
 O1 0.808419 0.354345 0.61329  -0.596150874704
 O1 0.864572 0.346719 0.50769  -0.596150874704
 O2 0.593565 0.663416 0.41377  -0.548135319149
 O1 0.537419 0.653372 0.51878  -0.596150874704
 O1 0.795137 0.391951 0.76983  -0.596150874704
 O2 0.891426 0.43132 0.84636  -0.548135319149
 O1 0.029348 0.708407 0.59589  -0.596150874704
 O1 0.937527 0.649427 0.52658  -0.596150874704
 O1 0.632664 0.520692 0.70882  -0.596150874704
 O2 0.684277 0.527436 0.8163  -0.548135319149
 O1 0.360977 0.830564 0.79932  -0.596150874704
 O1 0.39457 0.811966 0.90970  -0.596150874704
 O1 0.691426 0.145669 0.61353  -0.596150874704
 O1 0.635307 0.15323 0.50790  -0.596150874704
 O2 0.906389 0.836612 0.41377  -0.548135319149
 O1 0.962481 0.846674 0.51881  -0.596150874704
 O1 0.704869 0.10812 0.77006  -0.596150874704
 O2 0.608701 0.068753 0.8466  -0.548135319149
 O1 0.470383 0.791746 0.59593  -0.596150874704
 O1 0.562377 0.850578 0.52675  -0.596150874704
 O1 0.867276 0.979349 0.70887  -0.596150874704
 O2 0.815651 0.972555 0.81641  -0.548135319149
 O1 0.138976 0.669411 0.79921  -0.596150874704
 O1 0.105246 0.688022 0.90956  -0.596150874704
 O1 0.808548 0.145615 0.11364  -0.596150874704
 O1 0.86466 0.153193 0.00802  -0.596150874704
 O2 0.593589 0.836639 0.91380  -0.548135319149
 O1 0.537494 0.846667 0.01882  -0.596150874704
 O1 0.795263 0.107989 0.27013  -0.596150874704
 O2 0.891594 0.068684 0.3466  -0.548135319149
 O1 0.029778 0.791725 0.09573  -0.596150874704
 O1 0.937601 0.850545 0.0266  -0.596150874704
 O1 0.632639 0.979376 0.20893  -0.596150874704
 O2 0.68427 0.972572 0.31645  -0.548135319149
 O1 0.361042 0.669491 0.29933  -0.596150874704
 O1 0.394803 0.688076 0.40967  -0.596150874704
 O1 0.691529 0.354407 0.11347  -0.596150874704
 O1 0.63535 0.346785 0.00788  -0.596150874704
 O2 0.906346 0.663367 0.91377  -0.548135319149
 O1 0.96251 0.653367 0.01875  -0.596150874704
 O1 0.704648 0.392088 0.26990  -0.596150874704
 O2 0.608245 0.431424 0.34636  -0.548135319149
 O1 0.470336 0.708371 0.09569  -0.596150874704
 O1 0.562376 0.649475 0.02653  -0.596150874704
 O1 0.867341 0.520682 0.20885  -0.596150874704
 O2 0.815714 0.527428 0.31639  -0.548135319149
 O1 0.138949 0.830509 0.2994  -0.596150874704
 O1 0.105303 0.811943 0.40978  -0.596150874704
 O1 0.191542 0.645668 0.38672  -0.596150874704
 O1 0.135393 0.653302 0.49233  -0.596150874704
 O2 0.406399 0.336593 0.58625  -0.548135319149
 O1 0.462546 0.346651 0.48124  -0.596150874704
 O1 0.204846 0.608067 0.23018  -0.596150874704
 O2 0.108547 0.568703 0.15366  -0.548135319149
 O1 0.970621 0.291613 0.40413  -0.596150874704
 O1 0.062445 0.350583 0.47344  -0.596150874704
 O1 0.367298 0.479323 0.29120  -0.596150874704
 O2 0.315683 0.472576 0.18365  -0.548135319149
 O1 0.638985 0.169455 0.20070  -0.596150874704
 O1 0.605383 0.188046 0.09032  -0.596150874704
 O1 0.308532 0.854345 0.38650  -0.596150874704
 O1 0.364658 0.846787 0.49212  -0.596150874704
 O2 0.093577 0.1634 0.58627  -0.548135319149
 O1 0.037481 0.153346 0.48123  -0.596150874704
 O1 0.29511 0.891903 0.22998  -0.596150874704
 O2 0.391264 0.931271 0.1533  -0.548135319149
 O1 0.529583 0.208278 0.40411  -0.596150874704
 O1 0.437594 0.149431 0.47328  -0.596150874704
 O1 0.132682 0.020666 0.29115  -0.596150874704
 O2 0.184302 0.027454 0.18361  -0.548135319149
 O1 0.860991 0.330616 0.20082  -0.596150874704
 O1 0.894712 0.311994 0.09046  -0.596150874704
