#------------------------------------------------------------------------------
#$Date: 2019-11-17 08:58:04 +0200 (Sun, 17 Nov 2019) $
#$Revision: 228980 $
#$URL: file:///home/coder/svn-repositories/cod/cif/7/23/05/7230579.cif $
#------------------------------------------------------------------------------
#
# This file is available in the Crystallography Open Database (COD),
# http://www.crystallography.net/
#
# All data on this site have been placed in the public domain by the
# contributors.
#
data_7230579
loop_
_publ_author_name
'Islamoglu, Timur'
'Otake, Ken-ichi'
'Li, Peng'
'Buru, Cassandra T.'
'Peters, Aaron W.'
'Akpinar, Isil'
'Garibay, Sergio J.'
'Farha, Omar K.'
_publ_section_title
;
 Revisiting the structural homogeneity of NU-1000, a Zr-based
 metal--organic framework
;
_journal_issue                   39
_journal_name_full               CrystEngComm
_journal_page_first              5913
_journal_paper_doi               10.1039/C8CE00455B
_journal_volume                  20
_journal_year                    2018
_chemical_formula_moiety         'C88 H44 O32 Zr6'
_chemical_formula_sum            'C88 H44 O32 Zr6'
_chemical_formula_weight         2160.55
_chemical_name_systematic        NU1000
_space_group_crystal_system      hexagonal
_space_group_IT_number           191
_space_group_name_Hall           '-P 6 2'
_space_group_name_H-M_alt        'P 6/m m m'
_symmetry_space_group_name_Hall  '-P 6 2'
_symmetry_space_group_name_H-M   'P 6/m m m'
_atom_sites_solution_hydrogens   geom
_audit_creation_method           SHELXL-2017/1
_audit_update_record
;
2017-10-17 deposited with the CCDC.
2018-05-04 downloaded from the CCDC.
;
_cell_angle_alpha                90
_cell_angle_beta                 90
_cell_angle_gamma                120
_cell_formula_units_Z            3
_cell_length_a                   39.2679(14)
_cell_length_b                   39.2679(14)
_cell_length_c                   16.5666(7)
_cell_measurement_reflns_used    8878
_cell_measurement_temperature    100(2)
_cell_measurement_theta_max      66.06
_cell_measurement_theta_min      3.44
_cell_volume                     22122.8(15)
_computing_cell_refinement       'Bruker SAINT'
_computing_data_collection       'Bruker APEX2'
_computing_data_reduction        'Bruker SAINT'
_computing_molecular_graphics    'Yadokari-XG (Wakita, Nemoto et al., 2009)'
_computing_publication_material  'Yadokari-XG (Wakita, Nemoto et al., 2009)'
_computing_structure_refinement  'SHELXL-2017/1 (Sheldrick, 2017)'
_computing_structure_solution    'Sir2014 (Burla et al, 2015)'
_diffrn_ambient_temperature      100(2)
_diffrn_measured_fraction_theta_full 0.987
_diffrn_measured_fraction_theta_max 0.987
_diffrn_measurement_device_type  'Bruker Kappa APEX-II CCD area detector'
_diffrn_measurement_method       '\f and \w scans'
_diffrn_radiation_monochromator  'MX optics'
_diffrn_radiation_type           CuK\a
_diffrn_radiation_wavelength     1.54178
_diffrn_reflns_av_R_equivalents  0.1015
_diffrn_reflns_av_unetI/netI     0.0464
_diffrn_reflns_Laue_measured_fraction_full 0.987
_diffrn_reflns_Laue_measured_fraction_max 0.987
_diffrn_reflns_limit_h_max       44
_diffrn_reflns_limit_h_min       -45
_diffrn_reflns_limit_k_max       37
_diffrn_reflns_limit_k_min       -44
_diffrn_reflns_limit_l_max       15
_diffrn_reflns_limit_l_min       -19
_diffrn_reflns_number            73252
_diffrn_reflns_point_group_measured_fraction_full 0.987
_diffrn_reflns_point_group_measured_fraction_max 0.987
_diffrn_reflns_theta_full        66.624
_diffrn_reflns_theta_max         66.624
_diffrn_reflns_theta_min         2.967
_diffrn_source                   microsource
_exptl_absorpt_coefficient_mu    1.891
_exptl_absorpt_correction_T_max  1.0000
_exptl_absorpt_correction_T_min  0.7557
_exptl_absorpt_correction_type   multi-scan
_exptl_absorpt_process_details   '(SADABS-2014/5; Krause et al., 2015)'
_exptl_crystal_colour            yellow
_exptl_crystal_density_diffrn    0.487
_exptl_crystal_density_method    'not measured'
_exptl_crystal_description       block
_exptl_crystal_F_000             3204
_exptl_crystal_size_max          0.100
_exptl_crystal_size_mid          0.030
_exptl_crystal_size_min          0.030
_refine_diff_density_max         1.193
_refine_diff_density_min         -1.801
_refine_diff_density_rms         0.082
_refine_ls_extinction_method     none
_refine_ls_goodness_of_fit_ref   1.033
_refine_ls_hydrogen_treatment    constr
_refine_ls_matrix_type           full
_refine_ls_number_parameters     155
_refine_ls_number_reflns         7194
_refine_ls_number_restraints     12
_refine_ls_restrained_S_all      1.036
_refine_ls_R_factor_all          0.0722
_refine_ls_R_factor_gt           0.0616
_refine_ls_shift/su_max          0.003
_refine_ls_shift/su_mean         0.000
_refine_ls_structure_factor_coef Fsqd
_refine_ls_weighting_details
'w=1/[\s^2^(Fo^2^)+(0.0821P)^2^+45.9718P] where P=(Fo^2^+2Fc^2^)/3'
_refine_ls_weighting_scheme      calc
_refine_ls_wR_factor_gt          0.1614
_refine_ls_wR_factor_ref         0.1715
_reflns_Friedel_coverage         0.000
_reflns_number_gt                5867
_reflns_number_total             7194
_reflns_threshold_expression     'I > 2\s(I)'
_cod_data_source_file            c8ce00455b2.cif
_cod_data_source_block           updated-NU1000
_cod_depositor_comments          'Adding full bibliography for 7230579.cif.'
_cod_original_cell_volume        22123(2)
_cod_database_code               7230579
_shelx_shelxl_version_number     2017/1
_shelx_space_group_comment
;
The symmetry employed for this shelxl refinement is uniquely defined
by the following loop, which should always be used as a source of
symmetry information in preference to the above space-group names.
They are only intended as comments.
;
_shelx_res_file
;
TITL NU1000_114_5A_0m in P6/mmm
    nu1000_114_5a_0m_sq.res
    created by SHELXL-2017/1 at 01:38:56 on 17-Oct-2017
REM  Yadorkari-X generated
CELL 1.54178 39.2679 39.2679 16.5666 90.0000 90.0000 120.0000
ZERR 3.0 0.0014 0.0014 0.0007 0.0000 0.0000 0.0000
LATT 1
SYMM -X, -Y, +Z
SYMM -Y, +X-Y, +Z
SYMM -X+Y, -X, +Z
SYMM +X-Y, +X, +Z
SYMM +Y, -X+Y, +Z
SYMM +X-Y, -Y, -Z
SYMM -X, -X+Y, -Z
SYMM +Y, +X, -Z
SYMM -Y, -X, -Z
SYMM +X, +X-Y, -Z
SYMM -X+Y, +Y, -Z
REM  SPGR P6/mmm hexagonal
SFAC C O Zr H
UNIT 264 96 18 132
L.S. 25
FMAP 2
PLAN -25
ACTA
CONF
LIST 4

ABIN
ISOR 0.01 0.01 O4  O5

WGHT    0.082100   45.971802
FVAR       0.05754
C1    1    0.492426    0.093622    0.133505    11.00000    0.08620    0.02086 =
         0.03818   -0.00151    0.01394    0.02747
C2    1    0.492057    0.125363    0.183721    11.00000    0.11636    0.03358 =
         0.03314   -0.01000    0.00399    0.04140
C3    1    0.462473    0.115634    0.240342    11.00000    0.14186    0.05543 =
         0.04337   -0.00106    0.02798    0.05951
AFIX  43
H1    4    0.442486    0.089670    0.246259    11.00000   -1.20000
AFIX   0
C4    1    0.462982    0.145056    0.288151    11.00000    0.19921    0.07768 =
         0.04331    0.00388    0.03355    0.09612
AFIX  43
H2    4    0.443248    0.138428    0.326249    11.00000   -1.20000
AFIX   0
C5    1    0.491980    0.183609    0.280228    11.00000    0.20481    0.05656 =
         0.02279    0.00045    0.00723    0.08899
C6    1    0.520883    0.192926    0.222970    11.00000    0.16984    0.04046 =
         0.04260   -0.00932    0.00795    0.05373
AFIX  43
H3    4    0.540510    0.218980    0.216167    11.00000   -1.20000
AFIX   0
C7    1    0.520994    0.163799    0.175324    11.00000    0.13706    0.03258 =
         0.04660   -0.00957    0.00768    0.03559
AFIX  43
H4    4    0.540863    0.170491    0.137524    11.00000   -1.20000
AFIX   0
C8    1    0.492548    0.183890    0.459259    11.00000    0.31746    0.09067 =
         0.03506   -0.00789   -0.01226    0.15565
AFIX  43
H5    4    0.493210    0.163505    0.432087    11.00000   -1.20000
AFIX   0
C9    1    0.491568    0.214142    0.413536    11.00000    0.25996    0.07577 =
         0.02639   -0.00030    0.00424    0.13014
C10   1    0.491099    0.245550    0.456122    10.50000    0.26326    0.07569 =
         0.02913   -0.00155   -0.00310    0.13163
C11   1    0.493205    0.215922    0.329234    11.00000    0.21965    0.07879 =
         0.02768   -0.00156    0.00376    0.11085
C12   1    0.493412    0.246706    0.289806    10.50000    0.22144    0.07948 =
         0.01920    0.00157    0.00314    0.11072
AFIX  43
H6    4    0.493710    0.246855    0.233673    10.50000   -1.20000
AFIX   0
O1    2    0.466732    0.059256    0.148223    11.00000    0.08949    0.03365 =
         0.05663   -0.00952    0.02804    0.02123
O2    2    0.518877    0.105206    0.080970    11.00000    0.07922    0.02832 =
         0.02830   -0.00163    0.00447    0.02637
O3    2    0.471561    0.036019    0.000000    10.50000    0.08340    0.02782 =
         0.00857    0.00000    0.00000   -0.00562
O4    2    0.517496    0.034992    0.107416    10.50000    0.08048    0.04027 =
         0.07613    0.04973    0.02487    0.02013
O5    2    0.399149    0.000000    0.097391    10.50000    0.05474    0.05296 =
         0.08926    0.00000    0.01085    0.02648
O6    2    0.458469    0.000000    0.238589    10.50000    0.11814    0.05345 =
         0.02372    0.00000    0.01985    0.02673
ZR1   3    0.535989    0.071977    0.000000    10.25000    0.04798    0.01517 =
         0.01691    0.00000    0.00000    0.00758
ZR2   3    0.454965    0.000000    0.106715    10.50000    0.04940    0.02134 =
         0.02222    0.00000    0.00757    0.01067

HKLF 4 1 1 0 0 0 1 0 0 0 1




REM  NU1000_114_5A_0m in P6/mmm
REM R1 =  0.0616 for    5867 Fo > 4sig(Fo)  and  0.0722 for all    7194 data
REM    155 parameters refined using     12 restraints

END

WGHT      0.0819     46.2765

REM Highest difference peak  1.193,  deepest hole -1.801,  1-sigma level  0.082
Q1    1   0.4958  0.0460  0.1068  11.00000  0.05    1.19
Q2    1   0.5100 -0.0161  0.1013  11.00000  0.05    1.13
Q3    1   0.4508  0.0247  0.0000  10.50000  0.05    1.01
Q4    1   0.4925  0.0502  0.0000  10.50000  0.05    0.80
Q5    1   0.4466 -0.0318  0.2845  11.00000  0.05    0.72
Q6    1   0.4877  0.0000  0.2692  10.50000  0.05    0.64
Q7    1   0.3645  0.0000  0.1035  10.50000  0.05    0.62
Q8    1   0.3655 -0.0251  0.0818  11.00000  0.05    0.61
Q9    1   0.4196  0.0000  0.1436  10.50000  0.05    0.60
Q10   1   0.5571  0.1141  0.0000  10.25000  0.05    0.60
Q11   1   0.5205  0.0409  0.1383  10.50000  0.05    0.59
Q12   1   0.4682  0.0389  0.1230  11.00000  0.05    0.58
Q13   1   0.4811  0.0232  0.0000  10.50000  0.05    0.58
Q14   1   0.5269  0.1470  0.1036  11.00000  0.05    0.57
Q15   1   0.4451  0.0222  0.1120  11.00000  0.05    0.57
Q16   1   0.5181  0.0361  0.0687  10.50000  0.05    0.53
Q17   1   0.4889  0.0000  0.0446  10.50000  0.05    0.51
Q18   1   0.5530  0.1315  0.0000  10.50000  0.05    0.43
Q19   1   0.5157  0.0314  0.0000  10.25000  0.05    0.43
Q20   1   0.5237  0.0904  0.0000  10.50000  0.05    0.42
Q21   1   0.4795  0.0296  0.0269  11.00000  0.05    0.42
Q22   1   0.4536  0.0000  0.3094  10.50000  0.05    0.42
Q23   1   0.4543  0.0250  0.2180  11.00000  0.05    0.41
Q24   1   0.4788  0.0804  0.0000  10.50000  0.05    0.37
Q25   1   0.4862  0.0995  0.2546  11.00000  0.05    0.36
;
_shelx_res_checksum              42667
_shelx_fab_file
;
   -1    3    0    -78.51      0.00
   -1    4    0      6.98      0.00
   -2    5    0   -112.27      0.00
   -1    5    0     29.69      0.00
    0    5    0    262.06      0.00
   -2    6    0     11.09      0.00
   -1    6    0    115.59      0.00
    0    6    0    -82.87      0.00
   -3    7    0    -66.42      0.00
   -2    7    0   -110.07      0.00
   -1    7    0     71.41      0.00
    0    7    0    100.93      0.00
   -4    8    0    -12.61      0.00
   -3    8    0     50.74      0.00
   -2    8    0    -37.97      0.00
   -1    8    0    -69.42      0.00
    0    8    0    -45.62      0.00
   -4    9    0    -67.60      0.00
   -3    9    0    -63.47      0.00
   -2    9    0     69.84      0.00
   -1    9    0    -10.09      0.00
    0    9    0    -90.08      0.00
   -5   10    0     16.41      0.00
   -4   10    0     52.62      0.00
   -3   10    0     -5.59      0.00
   -2   10    0    -20.03      0.00
   -1   10    0      0.58      0.00
    0   10    0     13.05      0.00
   -5   11    0     29.88      0.00
   -4   11    0    -41.43      0.00
   -3   11    0    -18.99      0.00
   -2   11    0     -6.73      0.00
   -1   11    0      9.55      0.00
    0   11    0      8.43      0.00
   -6   12    0     -4.30      0.00
   -5   12    0    -28.42      0.00
   -4   12    0      5.83      0.00
   -3   12    0      3.15      0.00
   -2   12    0     -9.15      0.00
   -1   12    0     23.31      0.00
    0   12    0     -5.57      0.00
   -6   13    0    -31.22      0.00
   -5   13    0     16.42      0.00
   -4   13    0     31.40      0.00
   -3   13    0    -15.36      0.00
   -2   13    0     -8.66      0.00
   -1   13    0    -25.43      0.00
    0   13    0    -12.91      0.00
   -7   14    0     83.88      0.00
   -6   14    0    -16.75      0.00
   -5   14    0     11.22      0.00
   -4   14    0    -44.11      0.00
   -3   14    0      4.15      0.00
   -2   14    0     31.93      0.00
   -1   14    0     -3.49      0.00
    0   14    0     29.27      0.00
   -7   15    0    -32.02      0.00
   -6   15    0      5.46      0.00
   -5   15    0      1.54      0.00
   -4   15    0     24.70      0.00
   -3   15    0      2.11      0.00
   -2   15    0     -1.07      0.00
   -1   15    0     -2.73      0.00
    0   15    0      9.46      0.00
   -8   16    0     10.39      0.00
   -7   16    0      2.33      0.00
   -6   16    0     -1.93      0.00
   -5   16    0     10.59      0.00
   -4   16    0    -19.09      0.00
   -3   16    0     -0.20      0.00
   -2   16    0    -18.27      0.00
   -1   16    0     -8.37      0.00
    0   16    0    -31.78      0.00
   -8   17    0    -11.16      0.00
   -7   17    0     13.34      0.00
   -6   17    0     -6.47      0.00
   -5   17    0     -0.12      0.00
   -4   17    0      4.80      0.00
   -3   17    0      4.90      0.00
   -2   17    0     19.66      0.00
   -1   17    0      1.02      0.00
    0   17    0     18.68      0.00
   -9   18    0      6.06      0.00
   -8   18    0     27.38      0.00
   -7   18    0    -20.36      0.00
   -6   18    0     -2.30      0.00
   -5   18    0     -3.50      0.00
   -4   18    0     -9.25      0.00
   -3   18    0     19.93      0.00
   -2   18    0    -26.14      0.00
   -1   18    0     -7.00      0.00
    0   18    0     12.71      0.00
   -9   19    0    -11.11      0.00
   -8   19    0     -6.96      0.00
   -7   19    0     10.02      0.00
   -6   19    0     -4.05      0.00
   -5   19    0     -3.23      0.00
   -4   19    0      7.15      0.00
   -3   19    0    -15.32      0.00
   -2   19    0      5.64      0.00
   -1   19    0     14.36      0.00
    0   19    0     -5.09      0.00
  -10   20    0     36.95      0.00
   -9   20    0     -7.66      0.00
   -8   20    0     18.16      0.00
   -7   20    0      2.74      0.00
   -6   20    0    -30.51      0.00
   -5   20    0      5.68      0.00
   -4   20    0     14.63      0.00
   -3   20    0      1.43      0.00
   -2   20    0      7.84      0.00
   -1   20    0      8.12      0.00
    0   20    0      2.29      0.00
  -10   21    0     -6.42      0.00
   -9   21    0     12.02      0.00
   -8   21    0     -3.30      0.00
   -7   21    0      4.28      0.00
   -6   21    0      9.37      0.00
   -5   21    0    -11.39      0.00
   -4   21    0      1.97      0.00
   -3   21    0     -0.44      0.00
   -2   21    0     -4.24      0.00
   -1   21    0     -5.53      0.00
    0   21    0    -11.45      0.00
  -11   22    0     18.67      0.00
  -10   22    0     10.17      0.00
   -9   22    0     19.57      0.00
   -8   22    0     29.42      0.00
   -7   22    0     13.03      0.00
   -6   22    0      3.23      0.00
   -5   22    0    -16.50      0.00
   -4   22    0      9.65      0.00
   -3   22    0    -17.10      0.00
   -2   22    0      4.33      0.00
   -1   22    0      3.21      0.00
    0   22    0    -18.37      0.00
  -11   23    0     -8.21      0.00
  -10   23    0      6.58      0.00
   -9   23    0      9.89      0.00
   -8   23    0      8.57      0.00
   -7   23    0     10.40      0.00
   -6   23    0      7.13      0.00
   -5   23    0      6.78      0.00
   -4   23    0      9.59      0.00
   -3   23    0     13.79      0.00
   -2   23    0     -4.38      0.00
   -1   23    0    -10.09      0.00
    0   23    0     -1.94      0.00
  -12   24    0    -12.89      0.00
  -11   24    0     -2.32      0.00
  -10   24    0    -21.25      0.00
   -9   24    0     -6.04      0.00
   -8   24    0    -28.51      0.00
   -7   24    0      0.00      0.00
   -6   24    0     16.65      0.00
   -5   24    0     -7.84      0.00
   -4   24    0     -5.11      0.00
   -3   24    0      7.41      0.00
   -2   24    0     -8.73      0.00
   -1   24    0      2.41      0.00
    0   24    0     -0.61      0.00
  -12   25    0     -2.93      0.00
  -11   25    0    -24.53      0.00
  -10   25    0     -1.80      0.00
   -9   25    0     -5.11      0.00
   -8   25    0      4.62      0.00
   -7   25    0      4.16      0.00
   -6   25    0     11.98      0.00
   -5   25    0     -5.07      0.00
   -4   25    0     -0.39      0.00
   -3   25    0    -13.22      0.00
   -2   25    0     -3.63      0.00
   -1   25    0     -7.43      0.00
    0   25    0      2.48      0.00
  -13   26    0      5.43      0.00
  -12   26    0    -16.83      0.00
  -11   26    0     -1.72      0.00
  -10   26    0     -6.85      0.00
   -9   26    0     -2.59      0.00
   -8   26    0     -4.41      0.00
   -7   26    0      1.70      0.00
   -6   26    0      5.77      0.00
   -5   26    0      5.50      0.00
   -4   26    0     -3.32      0.00
   -3   26    0      1.17      0.00
   -2   26    0      3.72      0.00
   -1   26    0      1.05      0.00
    0   26    0      7.39      0.00
  -13   27    0    -12.72      0.00
  -12   27    0    -12.32      0.00
  -11   27    0      0.68      0.00
  -10   27    0     -6.19      0.00
   -9   27    0     -2.15      0.00
   -8   27    0      0.32      0.00
   -7   27    0     -2.40      0.00
   -6   27    0      0.43      0.00
   -5   27    0     -1.39      0.00
   -4   27    0     -7.16      0.00
   -3   27    0     -2.16      0.00
   -2   27    0      0.83      0.00
   -1   27    0     -1.54      0.00
    0   27    0      4.71      0.00
  -14   28    0     -3.40      0.00
  -13   28    0     -1.98      0.00
  -12   28    0     -2.62      0.00
  -11   28    0     -7.58      0.00
  -10   28    0      2.09      0.00
   -9   28    0     11.56      0.00
   -8   28    0    -15.32      0.00
   -7   28    0      1.50      0.00
   -6   28    0     -4.89      0.00
   -5   28    0      6.10      0.00
   -4   28    0      0.83      0.00
   -3   28    0     -3.59      0.00
   -2   28    0      4.67      0.00
   -1   28    0     -2.38      0.00
    0   28    0      6.62      0.00
  -14   29    0     -9.13      0.00
  -13   29    0      1.83      0.00
  -12   29    0     -6.42      0.00
  -11   29    0      2.25      0.00
  -10   29    0     -2.72      0.00
   -9   29    0    -14.47      0.00
   -8   29    0     -6.70      0.00
   -7   29    0     -1.30      0.00
   -6   29    0     13.43      0.00
   -5   29    0      8.01      0.00
   -4   29    0      7.98      0.00
   -3   29    0     -2.86      0.00
   -2   29    0     12.02      0.00
   -1   29    0      1.38      0.00
    0   29    0      0.35      0.00
  -15   30    0      0.64      0.00
  -14   30    0     -4.80      0.00
  -13   30    0     -4.59      0.00
  -12   30    0     -0.39      0.00
  -11   30    0      3.41      0.00
  -10   30    0     -2.14      0.00
   -9   30    0     -9.18      0.00
   -8   30    0     -6.99      0.00
   -7   30    0      5.24      0.00
   -6   30    0      6.51      0.00
   -5   30    0      4.79      0.00
   -4   30    0      1.59      0.00
   -3   30    0     -2.89      0.00
   -2   30    0     -2.28      0.00
   -1   30    0      3.02      0.00
    0   30    0      5.06      0.00
  -15   31    0      5.55      0.00
  -14   31    0     -3.41      0.00
  -13   31    0     -3.72      0.00
  -12   31    0     -5.77      0.00
  -11   31    0     -6.89      0.00
  -10   31    0     19.73      0.00
   -9   31    0      1.91      0.00
   -8   31    0     -6.04      0.00
   -7   31    0      4.14      0.00
   -6   31    0     -0.53      0.00
   -5   31    0     -6.62      0.00
   -4   31    0      1.45      0.00
   -3   31    0      4.85      0.00
   -2   31    0      1.54      0.00
   -1   31    0     -0.77      0.00
    0   31    0      6.23      0.00
  -16   32    0     12.53      0.00
  -15   32    0     -1.05      0.00
  -14   32    0      4.17      0.00
  -13   32    0      2.41      0.00
  -12   32    0      9.11      0.00
  -11   32    0     10.15      0.00
  -10   32    0     20.60      0.00
   -9   32    0     16.28      0.00
   -8   32    0     17.28      0.00
   -7   32    0     12.16      0.00
   -6   32    0     11.08      0.00
   -5   32    0      0.70      0.00
   -4   32    0      0.74      0.00
   -3   32    0      5.36      0.00
   -2   32    0      1.95      0.00
   -1   32    0     -3.66      0.00
    0   32    0      4.22      0.00
  -16   33    0      6.69      0.00
  -15   33    0      0.66      0.00
  -14   33    0      2.87      0.00
  -13   33    0     -6.22      0.00
  -12   33    0    -20.57      0.00
  -11   33    0     -1.34      0.00
  -10   33    0     15.48      0.00
   -9   33    0      7.29      0.00
   -8   33    0      4.86      0.00
   -7   33    0     10.32      0.00
   -6   33    0      8.12      0.00
   -5   33    0     -5.43      0.00
   -4   33    0      4.57      0.00
   -3   33    0     -4.65      0.00
   -2   33    0     -2.05      0.00
   -1   33    0      0.93      0.00
    0   33    0    -11.36      0.00
  -17   34    0      0.49      0.00
  -16   34    0      3.66      0.00
  -15   34    0      1.17      0.00
  -14   34    0     -7.28      0.00
  -13   34    0    -29.26      0.00
  -12   34    0     -2.63      0.00
  -11   34    0    -24.77      0.00
  -10   34    0     -2.00      0.00
   -9   34    0    -32.43      0.00
   -8   34    0     -0.70      0.00
   -7   34    0     14.45      0.00
   -6   34    0     -1.93      0.00
   -5   34    0     17.38      0.00
   -4   34    0     -8.28      0.00
   -3   34    0    -17.57      0.00
   -2   34    0    -18.57      0.00
   -1   34    0     -9.01      0.00
    0   34    0     -8.08      0.00
  -17   35    0     -8.58      0.00
  -16   35    0      1.31      0.00
  -15   35    0     -5.78      0.00
  -14   35    0     -6.41      0.00
  -13   35    0     -5.74      0.00
  -12   35    0    -15.79      0.00
  -11   35    0     -7.30      0.00
  -10   35    0    -21.50      0.00
   -9   35    0     -1.27      0.00
   -8   35    0     -3.06      0.00
   -7   35    0     -3.20      0.00
   -6   35    0      7.79      0.00
   -5   35    0     11.43      0.00
   -4   35    0     -2.65      0.00
   -3   35    0     -7.71      0.00
   -2   35    0    -10.35      0.00
   -1   35    0     -2.14      0.00
    0   35    0     -9.99      0.00
  -18   36    0     11.70      0.00
  -17   36    0     -1.93      0.00
  -16   36    0      2.92      0.00
  -15   36    0     -8.27      0.00
  -14   36    0     20.91      0.00
  -13   36    0     -6.78      0.00
  -12   36    0     -4.71      0.00
  -11   36    0    -20.33      0.00
  -10   36    0      1.92      0.00
   -9   36    0      7.23      0.00
   -8   36    0      7.02      0.00
   -7   36    0     -1.63      0.00
   -6   36    0      0.21      0.00
   -5   36    0     -1.87      0.00
   -4   36    0      0.22      0.00
   -3   36    0     14.33      0.00
   -2   36    0     -3.85      0.00
   -1   36    0     -6.95      0.00
    0   36    0    -15.12      0.00
  -18   37    0     10.06      0.00
  -17   37    0      2.62      0.00
  -16   37    0      4.97      0.00
  -15   37    0      1.31      0.00
  -14   37    0      3.70      0.00
  -13   37    0     -1.44      0.00
  -12   37    0     -7.09      0.00
  -11   37    0      1.14      0.00
  -10   37    0      1.75      0.00
   -9   37    0     -1.34      0.00
   -8   37    0     -4.25      0.00
   -7   37    0      3.99      0.00
   -6   37    0    -22.11      0.00
   -5   37    0     -1.90      0.00
   -4   37    0     -2.55      0.00
   -3   37    0     -2.64      0.00
   -2   37    0     -5.64      0.00
   -1   37    0      5.21      0.00
    0   37    0      0.65      0.00
  -19   38    0      1.33      0.00
  -18   38    0      0.16      0.00
  -17   38    0     -8.96      0.00
  -16   38    0      1.80      0.00
  -15   38    0     -0.79      0.00
  -14   38    0     11.67      0.00
  -13   38    0     -2.40      0.00
  -12   38    0      1.50      0.00
  -11   38    0     -4.30      0.00
  -10   38    0      9.10      0.00
   -9   38    0     -0.40      0.00
   -8   38    0      3.78      0.00
   -7   38    0     -7.39      0.00
   -6   38    0      0.20      0.00
   -5   38    0     -7.73      0.00
   -4   38    0     -2.87      0.00
   -3   38    0      4.99      0.00
   -2   38    0     -7.28      0.00
   -1   38    0     -3.01      0.00
    0   38    0      6.82      0.00
  -19   39    0    -10.19      0.00
  -18   39    0     -4.11      0.00
  -17   39    0     -1.38      0.00
  -16   39    0     -2.23      0.00
  -15   39    0     -2.06      0.00
  -14   39    0     -0.18      0.00
  -13   39    0      3.62      0.00
  -12   39    0      0.54      0.00
  -11   39    0     -3.14      0.00
  -10   39    0     -1.48      0.00
   -9   39    0      2.47      0.00
   -8   39    0     -5.80      0.00
   -7   39    0     15.53      0.00
   -6   39    0     -1.41      0.00
   -5   39    0      3.97      0.00
   -4   39    0      2.54      0.00
   -3   39    0     -1.40      0.00
   -2   39    0     -8.09      0.00
   -1   39    0     -2.72      0.00
    0   39    0      3.40      0.00
  -20   40    0     -6.60      0.00
  -19   40    0     -1.72      0.00
  -18   40    0     -5.70      0.00
  -17   40    0     -0.13      0.00
  -16   40    0      4.38      0.00
  -15   40    0     -5.92      0.00
  -14   40    0     11.57      0.00
  -13   40    0      1.49      0.00
  -12   40    0     -0.76      0.00
  -11   40    0     -1.00      0.00
  -10   40    0      3.56      0.00
   -9   40    0      2.99      0.00
   -8   40    0     -6.64      0.00
   -7   40    0     -5.51      0.00
   -6   40    0     -6.69      0.00
   -5   40    0     -1.91      0.00
   -4   40    0     18.15      0.00
   -3   40    0     -3.01      0.00
   -2   40    0     -4.89      0.00
   -1   40    0      6.84      0.00
    0   40    0    -12.39      0.00
  -20   41    0     -3.07      0.00
  -19   41    0     12.79      0.00
  -18   41    0     -4.88      0.00
  -17   41    0      3.84      0.00
  -16   41    0     -3.10      0.00
  -15   41    0      2.71      0.00
  -14   41    0      5.23      0.00
  -13   41    0      4.62      0.00
  -12   41    0     -1.14      0.00
  -11   41    0     -3.61      0.00
  -10   41    0     -2.02      0.00
   -9   41    0      3.33      0.00
   -8   41    0     -3.25      0.00
   -7   41    0     -6.90      0.00
   -6   41    0     14.32      0.00
   -5   41    0      0.50      0.00
   -4   41    0     -0.64      0.00
   -3   41    0     -0.02      0.00
   -2   41    0     -8.00      0.00
  -21   42    0     -0.70      0.00
  -20   42    0     -9.83      0.00
  -19   42    0     -2.97      0.00
  -18   42    0     -3.88      0.00
  -17   42    0      1.68      0.00
  -16   42    0     -3.60      0.00
  -15   42    0      4.14      0.00
  -14   42    0     -7.16      0.00
  -13   42    0     -0.91      0.00
  -12   42    0      1.17      0.00
  -11   42    0      0.57      0.00
  -10   42    0      0.82      0.00
   -9   42    0     -2.69      0.00
   -8   42    0     -5.97      0.00
   -7   42    0     -5.49      0.00
   -6   42    0     12.08      0.00
   -5   42    0      5.20      0.00
   -4   42    0     -0.48      0.00
  -21   43    0     -8.44      0.00
  -20   43    0      1.74      0.00
  -19   43    0    -26.59      0.00
  -18   43    0     -1.15      0.00
  -17   43    0      7.02      0.00
  -16   43    0     -2.74      0.00
  -15   43    0      4.82      0.00
  -14   43    0     -3.45      0.00
  -13   43    0      3.63      0.00
  -12   43    0     -4.42      0.00
  -11   43    0     -0.92      0.00
  -10   43    0     -5.49      0.00
   -9   43    0     -3.18      0.00
   -8   43    0    -15.75      0.00
   -7   43    0     -0.12      0.00
   -6   43    0     17.51      0.00
  -22   44    0     -6.61      0.00
  -21   44    0      0.35      0.00
  -20   44    0     -7.83      0.00
  -19   44    0     -8.81      0.00
  -18   44    0      4.51      0.00
  -17   44    0      3.50      0.00
  -16   44    0     -8.76      0.00
  -15   44    0     -4.13      0.00
  -14   44    0     -1.68      0.00
  -13   44    0     -8.95      0.00
  -12   44    0      6.26      0.00
  -11   44    0     -3.23      0.00
  -10   44    0    -13.03      0.00
   -9   44    0     -3.50      0.00
  -19   45    0      0.49      0.00
  -18   45    0      5.37      0.00
  -17   45    0     -6.78      0.00
    0    1    1    241.76      0.00
   -1    2    1    343.38      0.00
   -1    3    1    183.51      0.00
   -2    4    1   -172.55      0.00
   -1    4    1    -90.72      0.00
    0    4    1     83.07      0.00
   -2    5    1     82.74      0.00
   -1    5    1     16.06      0.00
    0    5    1    -98.73      0.00
   -3    6    1    -41.86      0.00
   -2    6    1     92.20      0.00
   -1    6    1    -50.47      0.00
    0    6    1     89.30      0.00
   -3    7    1    -58.02      0.00
   -2    7    1    -82.41      0.00
   -1    7    1     78.93      0.00
    0    7    1     44.80      0.00
   -4    8    1    -20.00      0.00
   -3    8    1    -12.84      0.00
   -2    8    1      9.22      0.00
   -1    8    1     11.79      0.00
    0    8    1    -42.34      0.00
   -4    9    1    -24.46      0.00
   -3    9    1     16.04      0.00
   -2    9    1    -38.79      0.00
   -1    9    1    -25.89      0.00
    0    9    1     17.96      0.00
   -5   10    1      3.06      0.00
   -4   10    1    -45.20      0.00
   -3   10    1     15.35      0.00
   -2   10    1     -8.94      0.00
   -1   10    1    -22.24      0.00
    0   10    1    -61.24      0.00
   -5   11    1     18.92      0.00
   -4   11    1     29.98      0.00
   -3   11    1    -25.03      0.00
   -2   11    1    -12.81      0.00
   -1   11    1     -7.46      0.00
    0   11    1     11.46      0.00
   -6   12    1      6.25      0.00
   -5   12    1    -32.31      0.00
   -4   12    1     -8.21      0.00
   -3   12    1     21.99      0.00
   -2   12    1    -16.36      0.00
   -1   12    1     22.23      0.00
    0   12    1      2.52      0.00
   -6   13    1     -3.28      0.00
   -5   13    1      6.44      0.00
   -4   13    1     -6.29      0.00
   -3   13    1    -14.48      0.00
   -2   13    1     12.34      0.00
   -1   13    1     -9.11      0.00
    0   13    1     -0.55      0.00
   -7   14    1     -0.51      0.00
   -6   14    1      0.52      0.00
   -5   14    1      2.20      0.00
   -4   14    1     10.94      0.00
   -3   14    1     -3.42      0.00
   -2   14    1     13.08      0.00
   -1   14    1    -15.88      0.00
    0   14    1     13.69      0.00
   -7   15    1     -2.83      0.00
   -6   15    1    -10.29      0.00
   -5   15    1     15.18      0.00
   -4   15    1    -13.18      0.00
   -3   15    1      2.47      0.00
   -2   15    1    -14.12      0.00
   -1   15    1     11.17      0.00
    0   15    1    -10.96      0.00
   -8   16    1     27.02      0.00
   -7   16    1    -10.76      0.00
   -6   16    1     -0.95      0.00
   -5   16    1    -15.67      0.00
   -4   16    1     14.34      0.00
   -3   16    1     -8.19      0.00
   -2   16    1      9.76      0.00
   -1   16    1    -10.73      0.00
    0   16    1     -8.61      0.00
   -8   17    1     -3.91      0.00
   -7   17    1     11.23      0.00
   -6   17    1     -4.33      0.00
   -5   17    1      5.46      0.00
   -4   17    1    -11.54      0.00
   -3   17    1     13.45      0.00
   -2   17    1     -4.66      0.00
   -1   17    1      0.66      0.00
    0   17    1     -1.65      0.00
   -9   18    1    -11.26      0.00
   -8   18    1     -2.70      0.00
   -7   18    1      8.10      0.00
   -6   18    1      5.94      0.00
   -5   18    1      2.86      0.00
   -4   18    1      2.93      0.00
   -3   18    1    -19.14      0.00
   -2   18    1     -9.41      0.00
   -1   18    1      7.29      0.00
    0   18    1     16.23      0.00
   -9   19    1     15.66      0.00
   -8   19    1      1.95      0.00
   -7   19    1     -7.35      0.00
   -6   19    1      6.26      0.00
   -5   19    1    -16.91      0.00
   -4   19    1      7.41      0.00
   -3   19    1      2.49      0.00
   -2   19    1     -7.95      0.00
   -1   19    1      4.87      0.00
    0   19    1     -8.72      0.00
  -10   20    1    -15.37      0.00
   -9   20    1     -1.59      0.00
   -8   20    1     -8.66      0.00
   -7   20    1      7.60      0.00
   -6   20    1     -6.48      0.00
   -5   20    1     15.13      0.00
   -4   20    1     -0.71      0.00
   -3   20    1     -2.86      0.00
   -2   20    1     11.04      0.00
   -1   20    1      5.38      0.00
    0   20    1      4.64      0.00
  -10   21    1     10.38      0.00
   -9   21    1      6.73      0.00
   -8   21    1      6.93      0.00
   -7   21    1    -12.08      0.00
   -6   21    1      5.76      0.00
   -5   21    1     -0.38      0.00
   -4   21    1      1.23      0.00
   -3   21    1      3.87      0.00
   -2   21    1     -3.70      0.00
   -1   21    1     -2.78      0.00
    0   21    1     -3.30      0.00
  -11   22    1     -0.28      0.00
  -10   22    1      8.18      0.00
   -9   22    1      9.63      0.00
   -8   22    1     14.19      0.00
   -7   22    1     11.26      0.00
   -6   22    1      8.13      0.00
   -5   22    1     -1.11      0.00
   -4   22    1      4.58      0.00
   -3   22    1     -1.83      0.00
   -2   22    1     -5.75      0.00
   -1   22    1     -4.72      0.00
    0   22    1     -7.68      0.00
  -11   23    1      0.99      0.00
  -10   23    1     -0.56      0.00
   -9   23    1      9.14      0.00
   -8   23    1     -6.07      0.00
   -7   23    1      5.91      0.00
   -6   23    1     -6.39      0.00
   -5   23    1      6.97      0.00
   -4   23    1     -3.90      0.00
   -3   23    1      6.85      0.00
   -2   23    1      4.88      0.00
   -1   23    1    -12.92      0.00
    0   23    1      0.31      0.00
  -12   24    1     -5.21      0.00
  -11   24    1    -14.73      0.00
  -10   24    1     -1.39      0.00
   -9   24    1     -6.55      0.00
   -8   24    1    -11.77      0.00
   -7   24    1      2.48      0.00
   -6   24    1      9.81      0.00
   -5   24    1     -5.67      0.00
   -4   24    1     -3.00      0.00
   -3   24    1      7.18      0.00
   -2   24    1     -5.89      0.00
   -1   24    1     -2.37      0.00
    0   24    1     -4.07      0.00
  -12   25    1     -4.80      0.00
  -11   25    1    -13.49      0.00
  -10   25    1     -2.38      0.00
   -9   25    1     -4.43      0.00
   -8   25    1     -2.35      0.00
   -7   25    1      1.73      0.00
   -6   25    1     -2.48      0.00
   -5   25    1      2.40      0.00
   -4   25    1     -1.33      0.00
   -3   25    1     -0.27      0.00
   -2   25    1     -1.70      0.00
   -1   25    1     -1.81      0.00
    0   25    1      0.22      0.00
  -13   26    1     -8.58      0.00
  -12   26    1     -6.45      0.00
  -11   26    1     -5.16      0.00
  -10   26    1     -1.20      0.00
   -9   26    1     -0.65      0.00
   -8   26    1     -2.78      0.00
   -7   26    1      7.20      0.00
   -6   26    1     11.79      0.00
   -5   26    1     -7.74      0.00
   -4   26    1      0.74      0.00
   -3   26    1      1.19      0.00
   -2   26    1      3.41      0.00
   -1   26    1     -1.23      0.00
    0   26    1      8.60      0.00
  -13   27    1     -5.97      0.00
  -12   27    1     -9.45      0.00
  -11   27    1     -0.15      0.00
  -10   27    1     -7.47      0.00
   -9   27    1     -0.43      0.00
   -8   27    1     -2.32      0.00
   -7   27    1      0.06      0.00
   -6   27    1     -2.86      0.00
   -5   27    1      4.64      0.00
   -4   27    1     -4.19      0.00
   -3   27    1     -5.63      0.00
   -2   27    1     -3.53      0.00
   -1   27    1      8.11      0.00
    0   27    1     -2.21      0.00
  -14   28    1    -11.91      0.00
  -13   28    1     -0.66      0.00
  -12   28    1     -3.46      0.00
  -11   28    1     -9.61      0.00
  -10   28    1      2.39      0.00
   -9   28    1     -0.37      0.00
   -8   28    1     -4.37      0.00
   -7   28    1     -8.07      0.00
   -6   28    1    -12.83      0.00
   -5   28    1      0.93      0.00
   -4   28    1     -1.64      0.00
   -3   28    1      0.31      0.00
   -2   28    1     -1.52      0.00
   -1   28    1      1.53      0.00
    0   28    1     -5.82      0.00
  -14   29    1     -7.56      0.00
  -13   29    1     -2.32      0.00
  -12   29    1      1.50      0.00
  -11   29    1      4.59      0.00
  -10   29    1     -0.23      0.00
   -9   29    1     -5.50      0.00
   -8   29    1     -4.56      0.00
   -7   29    1     -4.20      0.00
   -6   29    1      6.17      0.00
   -5   29    1      6.50      0.00
   -4   29    1      4.45      0.00
   -3   29    1      2.49      0.00
   -2   29    1      2.32      0.00
   -1   29    1      5.12      0.00
    0   29    1     -3.12      0.00
  -15   30    1      0.71      0.00
  -14   30    1      0.65      0.00
  -13   30    1     -3.38      0.00
  -12   30    1     -3.56      0.00
  -11   30    1     -2.16      0.00
  -10   30    1     -9.26      0.00
   -9   30    1      3.96      0.00
   -8   30    1     15.93      0.00
   -7   30    1      8.16      0.00
   -6   30    1      5.68      0.00
   -5   30    1      3.61      0.00
   -4   30    1      4.15      0.00
   -3   30    1      3.92      0.00
   -2   30    1     -0.76      0.00
   -1   30    1      2.17      0.00
    0   30    1      1.70      0.00
  -15   31    1     -1.32      0.00
  -14   31    1      4.47      0.00
  -13   31    1     -2.46      0.00
  -12   31    1      4.47      0.00
  -11   31    1      1.38      0.00
  -10   31    1     13.25      0.00
   -9   31    1     -0.73      0.00
   -8   31    1      2.05      0.00
   -7   31    1     11.07      0.00
   -6   31    1      3.06      0.00
   -5   31    1      4.66      0.00
   -4   31    1      3.06      0.00
   -3   31    1      0.57      0.00
   -2   31    1      0.76      0.00
   -1   31    1     -1.44      0.00
    0   31    1      2.16      0.00
  -16   32    1     14.37      0.00
  -15   32    1     -3.69      0.00
  -14   32    1      1.12      0.00
  -13   32    1      7.77      0.00
  -12   32    1     -8.29      0.00
  -11   32    1     -4.70      0.00
  -10   32    1     -0.09      0.00
   -9   32    1      1.56      0.00
   -8   32    1     -2.28      0.00
   -7   32    1     -1.44      0.00
   -6   32    1      6.27      0.00
   -5   32    1     -3.38      0.00
   -4   32    1      5.82      0.00
   -3   32    1     -0.33      0.00
   -2   32    1     -3.63      0.00
   -1   32    1      3.78      0.00
    0   32    1      8.37      0.00
  -16   33    1     11.24      0.00
  -15   33    1     -5.30      0.00
  -14   33    1     -0.91      0.00
  -13   33    1     -0.48      0.00
  -12   33    1    -11.93      0.00
  -11   33    1     -3.20      0.00
  -10   33    1     12.20      0.00
   -9   33    1      0.15      0.00
   -8   33    1      3.18      0.00
   -7   33    1      2.73      0.00
   -6   33    1      4.90      0.00
   -5   33    1     -4.66      0.00
   -4   33    1     -0.43      0.00
   -3   33    1     -1.41      0.00
   -2   33    1     -2.27      0.00
   -1   33    1     -6.36      0.00
    0   33    1     -2.96      0.00
  -17   34    1      4.64      0.00
  -16   34    1     -0.23      0.00
  -15   34    1      5.57      0.00
  -14   34    1      6.11      0.00
  -13   34    1     -1.55      0.00
  -12   34    1    -24.70      0.00
  -11   34    1     -3.41      0.00
  -10   34    1     -9.63      0.00
   -9   34    1     -3.30      0.00
   -8   34    1     -3.59      0.00
   -7   34    1     -4.13      0.00
   -6   34    1      0.91      0.00
   -5   34    1     -1.99      0.00
   -4   34    1      0.36      0.00
   -3   34    1     -4.58      0.00
   -2   34    1     -4.97      0.00
   -1   34    1     -8.64      0.00
    0   34    1     -7.43      0.00
  -17   35    1    -14.93      0.00
  -16   35    1      9.26      0.00
  -15   35    1     -2.39      0.00
  -14   35    1     -3.07      0.00
  -13   35    1      0.69      0.00
  -12   35    1    -19.89      0.00
  -11   35    1     -1.95      0.00
  -10   35    1     11.69      0.00
   -9   35    1     -0.54      0.00
   -8   35    1      3.50      0.00
   -7   35    1      0.09      0.00
   -6   35    1      0.91      0.00
   -5   35    1     -9.49      0.00
   -4   35    1     -2.19      0.00
   -3   35    1     -4.62      0.00
   -2   35    1     -4.49      0.00
   -1   35    1     -7.10      0.00
    0   35    1     -8.11      0.00
  -18   36    1      1.53      0.00
  -17   36    1      3.26      0.00
  -16   36    1      1.99      0.00
  -15   36    1      0.04      0.00
  -14   36    1    -17.03      0.00
  -13   36    1     -9.63      0.00
  -12   36    1     -5.31      0.00
  -11   36    1     19.25      0.00
  -10   36    1     -6.48      0.00
   -9   36    1      6.73      0.00
   -8   36    1     -1.59      0.00
   -7   36    1      0.42      0.00
   -6   36    1      1.93      0.00
   -5   36    1      0.67      0.00
   -4   36    1      3.10      0.00
   -3   36    1      3.58      0.00
   -2   36    1     -3.19      0.00
   -1   36    1    -12.18      0.00
    0   36    1     -4.95      0.00
  -18   37    1      1.28      0.00
  -17   37    1     -2.75      0.00
  -16   37    1      5.42      0.00
  -15   37    1      1.02      0.00
  -14   37    1     -1.50      0.00
  -13   37    1     -1.95      0.00
  -12   37    1     -2.01      0.00
  -11   37    1     -1.67      0.00
  -10   37    1     -2.71      0.00
   -9   37    1     -1.60      0.00
   -8   37    1      6.39      0.00
   -7   37    1      9.98      0.00
   -6   37    1      7.67      0.00
   -5   37    1     -5.69      0.00
   -4   37    1      1.91      0.00
   -3   37    1      2.74      0.00
   -2   37    1     -1.40      0.00
   -1   37    1     -3.67      0.00
    0   37    1      5.49      0.00
  -19   38    1      3.89      0.00
  -18   38    1     -2.40      0.00
  -17   38    1      3.35      0.00
  -16   38    1     -3.63      0.00
  -15   38    1      2.57      0.00
  -14   38    1      5.95      0.00
  -13   38    1     -3.78      0.00
  -12   38    1     -8.71      0.00
  -11   38    1      6.45      0.00
  -10   38    1     -0.97      0.00
   -9   38    1     -2.17      0.00
   -8   38    1      0.62      0.00
   -7   38    1     -4.57      0.00
   -6   38    1     -2.42      0.00
   -5   38    1     -2.56      0.00
   -4   38    1     -3.04      0.00
   -3   38    1      1.93      0.00
   -2   38    1     -3.33      0.00
   -1   38    1     -5.61      0.00
    0   38    1      3.08      0.00
  -19   39    1      7.11      0.00
  -18   39    1     -0.50      0.00
  -17   39    1      4.10      0.00
  -16   39    1     -0.79      0.00
  -15   39    1      2.84      0.00
  -14   39    1      0.72      0.00
  -13   39    1     -1.50      0.00
  -12   39    1      0.51      0.00
  -11   39    1     -2.00      0.00
  -10   39    1      0.10      0.00
   -9   39    1     -3.59      0.00
   -8   39    1     -1.40      0.00
   -7   39    1     -7.43      0.00
   -6   39    1    -11.14      0.00
   -5   39    1     -3.57      0.00
   -4   39    1      3.19      0.00
   -3   39    1     -0.93      0.00
   -2   39    1      3.04      0.00
   -1   39    1      0.99      0.00
    0   39    1     -0.19      0.00
  -20   40    1      1.13      0.00
  -19   40    1     -5.78      0.00
  -18   40    1     -1.17      0.00
  -17   40    1     -1.65      0.00
  -16   40    1      2.92      0.00
  -15   40    1     -4.55      0.00
  -14   40    1      4.86      0.00
  -13   40    1      4.84      0.00
  -12   40    1     -2.94      0.00
  -11   40    1     -0.67      0.00
  -10   40    1      1.44      0.00
   -9   40    1     -0.24      0.00
   -8   40    1     -2.54      0.00
   -7   40    1      0.18      0.00
   -6   40    1     -7.44      0.00
   -5   40    1      2.61      0.00
   -4   40    1     -8.49      0.00
   -3   40    1      1.72      0.00
   -2   40    1      2.96      0.00
   -1   40    1      1.01      0.00
    0   40    1     -0.99      0.00
  -20   41    1     -2.80      0.00
  -19   41    1    -23.12      0.00
  -18   41    1     -5.43      0.00
  -17   41    1      2.97      0.00
  -16   41    1      0.16      0.00
  -15   41    1      3.18      0.00
  -14   41    1      0.47      0.00
  -13   41    1     -0.43      0.00
  -12   41    1      0.77      0.00
  -11   41    1     -2.83      0.00
  -10   41    1      0.22      0.00
   -9   41    1      2.50      0.00
   -8   41    1     -9.25      0.00
   -7   41    1     -6.13      0.00
   -6   41    1     17.64      0.00
   -5   41    1      0.68      0.00
   -4   41    1      3.65      0.00
   -3   41    1      3.38      0.00
   -2   41    1     -8.59      0.00
  -21   42    1     -2.70      0.00
  -20   42    1     -1.35      0.00
  -19   42    1     -3.45      0.00
  -18   42    1      0.08      0.00
  -17   42    1      1.15      0.00
  -16   42    1      3.00      0.00
  -15   42    1      5.96      0.00
  -14   42    1     -4.72      0.00
  -13   42    1      2.05      0.00
  -12   42    1     -3.06      0.00
  -11   42    1      0.00      0.00
  -10   42    1     -3.49      0.00
   -9   42    1     -2.95      0.00
   -8   42    1     -9.70      0.00
   -7   42    1      4.36      0.00
   -6   42    1     11.73      0.00
   -5   42    1      4.00      0.00
   -4   42    1      7.29      0.00
  -21   43    1     -3.92      0.00
  -20   43    1     -4.12      0.00
  -19   43    1      5.53      0.00
  -18   43    1     -3.64      0.00
  -17   43    1      0.32      0.00
  -16   43    1     -0.67      0.00
  -15   43    1      2.22      0.00
  -14   43    1      2.14      0.00
  -13   43    1      0.14      0.00
  -12   43    1      0.35      0.00
  -11   43    1      0.98      0.00
  -10   43    1     -0.72      0.00
   -9   43    1     -6.45      0.00
   -8   43    1    -12.22      0.00
   -7   43    1     -1.59      0.00
   -6   43    1    -11.36      0.00
  -22   44    1     -1.75      0.00
  -21   44    1     -4.34      0.00
  -20   44    1     -1.72      0.00
  -19   44    1      6.31      0.00
  -18   44    1    -13.69      0.00
  -17   44    1      0.55      0.00
  -16   44    1      4.58      0.00
  -15   44    1     -4.39      0.00
  -14   44    1     -1.27      0.00
  -13   44    1     -8.50      0.00
  -12   44    1      2.01      0.00
  -11   44    1     -0.34      0.00
  -10   44    1      0.91      0.00
   -9   44    1      3.43      0.00
  -22   45    1     -2.98      0.00
  -21   45    1     -6.78      0.00
  -20   45    1     -6.64      0.00
  -19   45    1      4.54      0.00
  -18   45    1     -0.69      0.00
  -17   45    1      1.76      0.00
  -16   45    1      5.53      0.00
  -15   45    1     -8.23      0.00
    0    0    2    544.21      0.00
    0    1    2    -17.03      0.00
   -1    2    2     49.79      0.00
    0    2    2      8.32      0.00
   -1    3    2    116.21      0.00
    0    3    2    -27.57      0.00
   -2    4    2   -121.76      0.00
   -1    4    2    -17.56      0.00
    0    4    2    -19.98      0.00
   -2    5    2     86.17      0.00
   -1    5    2     79.75      0.00
    0    5    2      4.42      0.00
   -3    6    2   -145.89      0.00
   -2    6    2     42.95      0.00
   -1    6    2    -40.35      0.00
    0    6    2   -143.39      0.00
   -3    7    2    -13.14      0.00
   -2    7    2    -13.96      0.00
   -1    7    2     25.74      0.00
    0    7    2     40.47      0.00
   -4    8    2     55.20      0.00
   -3    8    2      1.89      0.00
   -2    8    2    -10.41      0.00
   -1    8    2     -1.63      0.00
    0    8    2     13.03      0.00
   -4    9    2    -10.79      0.00
   -3    9    2      9.06      0.00
   -2    9    2    -41.92      0.00
   -1    9    2    -25.75      0.00
    0    9    2     45.27      0.00
   -5   10    2    -72.42      0.00
   -4   10    2     29.57      0.00
   -3   10    2    -46.51      0.00
   -2   10    2      5.08      0.00
   -1   10    2    -19.64      0.00
    0   10    2      6.37      0.00
   -5   11    2     14.10      0.00
   -4   11    2     66.86      0.00
   -3   11    2    -44.47      0.00
   -2   11    2    -10.85      0.00
   -1   11    2      4.79      0.00
    0   11    2    -53.07      0.00
   -6   12    2      4.63      0.00
   -5   12    2    -44.04      0.00
   -4   12    2     -9.65      0.00
   -3   12    2     10.33      0.00
   -2   12    2      6.81      0.00
   -1   12    2     -7.95      0.00
    0   12    2     17.55      0.00
   -6   13    2     18.46      0.00
   -5   13    2      5.25      0.00
   -4   13    2      7.53      0.00
   -3   13    2    -19.56      0.00
   -2   13    2      7.49      0.00
   -1   13    2    -20.40      0.00
    0   13    2     -9.81      0.00
   -7   14    2     22.16      0.00
   -6   14    2    -25.24      0.00
   -5   14    2      1.78      0.00
   -4   14    2      0.36      0.00
   -3   14    2      4.75      0.00
   -2   14    2      1.71      0.00
   -1   14    2      4.79      0.00
    0   14    2      8.16      0.00
   -7   15    2     -8.25      0.00
   -6   15    2      2.94      0.00
   -5   15    2     13.15      0.00
   -4   15    2     -6.16      0.00
   -3   15    2      0.90      0.00
   -2   15    2     -5.89      0.00
   -1   15    2     -8.21      0.00
    0   15    2      1.39      0.00
   -8   16    2     -8.39      0.00
   -7   16    2     13.68      0.00
   -6   16    2    -15.69      0.00
   -5   16    2     -0.29      0.00
   -4   16    2     -5.55      0.00
   -3   16    2      8.91      0.00
   -2   16    2      0.38      0.00
   -1   16    2     -9.91      0.00
    0   16    2     -2.97      0.00
   -8   17    2     -2.79      0.00
   -7   17    2     18.86      0.00
   -6   17    2     -2.50      0.00
   -5   17    2      8.17      0.00
   -4   17    2     -9.36      0.00
   -3   17    2     -2.66      0.00
   -2   17    2      6.51      0.00
   -1   17    2     -3.21      0.00
    0   17    2      7.39      0.00
   -9   18    2     -5.02      0.00
   -8   18    2      7.90      0.00
   -7   18    2      8.40      0.00
   -6   18    2     -2.74      0.00
   -5   18    2     12.68      0.00
   -4   18    2     -1.70      0.00
   -3   18    2      0.44      0.00
   -2   18    2     -5.12      0.00
   -1   18    2     -6.20      0.00
    0   18    2     -0.37      0.00
   -9   19    2     13.26      0.00
   -8   19    2      1.37      0.00
   -7   19    2     -2.24      0.00
   -6   19    2      0.75      0.00
   -5   19    2     -7.45      0.00
   -4   19    2     13.33      0.00
   -3   19    2      3.62      0.00
   -2   19    2      3.97      0.00
   -1   19    2      3.56      0.00
    0   19    2     -1.96      0.00
  -10   20    2     -8.59      0.00
   -9   20    2     -8.57      0.00
   -8   20    2      3.34      0.00
   -7   20    2     -1.12      0.00
   -6   20    2     -6.34      0.00
   -5   20    2      6.40      0.00
   -4   20    2     -5.78      0.00
   -3   20    2     -6.80      0.00
   -2   20    2      0.28      0.00
   -1   20    2      5.77      0.00
    0   20    2     -2.40      0.00
  -10   21    2      4.15      0.00
   -9   21    2     10.62      0.00
   -8   21    2      4.95      0.00
   -7   21    2      4.41      0.00
   -6   21    2      7.14      0.00
   -5   21    2     -4.36      0.00
   -4   21    2     12.74      0.00
   -3   21    2     -5.29      0.00
   -2   21    2     -3.35      0.00
   -1   21    2      5.61      0.00
    0   21    2    -10.42      0.00
  -11   22    2      7.70      0.00
  -10   22    2      1.40      0.00
   -9   22    2      0.10      0.00
   -8   22    2      6.17      0.00
   -7   22    2     -1.84      0.00
   -6   22    2     -5.83      0.00
   -5   22    2     -5.80      0.00
   -4   22    2      5.52      0.00
   -3   22    2     -4.40      0.00
   -2   22    2     -6.41      0.00
   -1   22    2     11.14      0.00
    0   22    2     -0.42      0.00
  -11   23    2     -3.71      0.00
  -10   23    2     -9.15      0.00
   -9   23    2     -0.16      0.00
   -8   23    2     -3.87      0.00
   -7   23    2     -0.46      0.00
   -6   23    2      0.34      0.00
   -5   23    2     -0.48      0.00
   -4   23    2     -4.22      0.00
   -3   23    2     -1.57      0.00
   -2   23    2      0.03      0.00
   -1   23    2     -5.22      0.00
    0   23    2      6.54      0.00
  -12   24    2     13.35      0.00
  -11   24    2     -2.20      0.00
  -10   24    2      0.15      0.00
   -9   24    2      6.89      0.00
   -8   24    2     -2.97      0.00
   -7   24    2     -5.30      0.00
   -6   24    2     -3.40      0.00
   -5   24    2     -6.26      0.00
   -4   24    2    -10.33      0.00
   -3   24    2      2.08      0.00
   -2   24    2     -2.18      0.00
   -1   24    2      5.25      0.00
    0   24    2     -3.50      0.00
  -12   25    2     -4.81      0.00
  -11   25    2     -8.12      0.00
  -10   25    2     -5.12      0.00
   -9   25    2     -4.18      0.00
   -8   25    2      0.04      0.00
   -7   25    2    -10.01      0.00
   -6   25    2     -0.09      0.00
   -5   25    2     -2.57      0.00
   -4   25    2     -3.42      0.00
   -3   25    2      4.80      0.00
   -2   25    2      0.76      0.00
   -1   25    2    -11.25      0.00
    0   25    2      1.27      0.00
  -13   26    2     -7.31      0.00
  -12   26    2     -5.27      0.00
  -11   26    2     -7.11      0.00
  -10   26    2     -2.21      0.00
   -9   26    2     -0.33      0.00
   -8   26    2      4.25      0.00
   -7   26    2     -8.05      0.00
   -6   26    2     -1.93      0.00
   -5   26    2     -5.10      0.00
   -4   26    2     -5.00      0.00
   -3   26    2      2.25      0.00
   -2   26    2      3.46      0.00
   -1   26    2     -4.36      0.00
    0   26    2     10.47      0.00
  -13   27    2     -2.27      0.00
  -12   27    2      1.20      0.00
  -11   27    2      8.34      0.00
  -10   27    2     -0.19      0.00
   -9   27    2      3.03      0.00
   -8   27    2      4.72      0.00
   -7   27    2     -4.76      0.00
   -6   27    2     -2.96      0.00
   -5   27    2      6.80      0.00
   -4   27    2     -3.43      0.00
   -3   27    2      4.20      0.00
   -2   27    2      3.11      0.00
   -1   27    2     -1.15      0.00
    0   27    2      1.81      0.00
  -14   28    2     -0.30      0.00
  -13   28    2    -10.46      0.00
  -12   28    2     -0.81      0.00
  -11   28    2     -5.30      0.00
  -10   28    2      3.94      0.00
   -9   28    2     -0.75      0.00
   -8   28    2      9.30      0.00
   -7   28    2     -2.98      0.00
   -6   28    2      4.00      0.00
   -5   28    2      3.58      0.00
   -4   28    2     -1.31      0.00
   -3   28    2      4.68      0.00
   -2   28    2      2.07      0.00
   -1   28    2      1.13      0.00
    0   28    2     -0.09      0.00
  -14   29    2     -0.16      0.00
  -13   29    2      3.79      0.00
  -12   29    2     -4.15      0.00
  -11   29    2      7.02      0.00
  -10   29    2     -1.50      0.00
   -9   29    2    -10.71      0.00
   -8   29    2     -1.30      0.00
   -7   29    2     -3.13      0.00
   -6   29    2     -3.94      0.00
   -5   29    2      4.93      0.00
   -4   29    2     -0.86      0.00
   -3   29    2      5.09      0.00
   -2   29    2     -0.12      0.00
   -1   29    2      4.46      0.00
    0   29    2      0.44      0.00
  -15   30    2     -3.67      0.00
  -14   30    2     -0.72      0.00
  -13   30    2     -0.91      0.00
  -12   30    2      3.18      0.00
  -11   30    2      4.17      0.00
  -10   30    2     -0.52      0.00
   -9   30    2     -3.93      0.00
   -8   30    2      1.45      0.00
   -7   30    2      3.38      0.00
   -6   30    2     -1.50      0.00
   -5   30    2      4.46      0.00
   -4   30    2     -1.80      0.00
   -3   30    2     -2.89      0.00
   -2   30    2      1.03      0.00
   -1   30    2     -1.25      0.00
    0   30    2     -2.66      0.00
  -15   31    2      2.70      0.00
  -14   31    2      6.36      0.00
  -13   31    2      3.24      0.00
  -12   31    2     -5.35      0.00
  -11   31    2     -0.54      0.00
  -10   31    2      0.87      0.00
   -9   31    2     -0.81      0.00
   -8   31    2     -1.15      0.00
   -7   31    2      7.23      0.00
   -6   31    2     -0.72      0.00
   -5   31    2      5.32      0.00
   -4   31    2     -7.50      0.00
   -3   31    2      5.14      0.00
   -2   31    2     -8.39      0.00
   -1   31    2      6.49      0.00
    0   31    2     -2.57      0.00
  -16   32    2    -14.22      0.00
  -15   32    2      2.94      0.00
  -14   32    2     -0.29      0.00
  -13   32    2      2.14      0.00
  -12   32    2      0.06      0.00
  -11   32    2      0.86      0.00
  -10   32    2      1.22      0.00
   -9   32    2      9.05      0.00
   -8   32    2      6.21      0.00
   -7   32    2     -1.55      0.00
   -6   32    2      2.09      0.00
   -5   32    2      1.55      0.00
   -4   32    2     -8.97      0.00
   -3   32    2      3.18      0.00
   -2   32    2     -5.57      0.00
   -1   32    2     -8.68      0.00
    0   32    2      5.97      0.00
  -16   33    2      4.41      0.00
  -15   33    2      3.56      0.00
  -14   33    2     -1.98      0.00
  -13   33    2     -1.16      0.00
  -12   33    2     -5.23      0.00
  -11   33    2      1.34      0.00
  -10   33    2     -0.95      0.00
   -9   33    2     10.77      0.00
   -8   33    2     -6.03      0.00
   -7   33    2     -0.54      0.00
   -6   33    2     -2.85      0.00
   -5   33    2     -0.42      0.00
   -4   33    2     -6.04      0.00
   -3   33    2      1.09      0.00
   -2   33    2      4.41      0.00
   -1   33    2     -3.59      0.00
    0   33    2     -6.28      0.00
  -17   34    2     11.23      0.00
  -16   34    2     -6.70      0.00
  -15   34    2      9.46      0.00
  -14   34    2     -5.01      0.00
  -13   34    2      2.95      0.00
  -12   34    2     -8.35      0.00
  -11   34    2     -2.58      0.00
  -10   34    2      1.00      0.00
   -9   34    2     -4.56      0.00
   -8   34    2     -0.72      0.00
   -7   34    2      2.75      0.00
   -6   34    2      2.22      0.00
   -5   34    2      4.69      0.00
   -4   34    2      4.94      0.00
   -3   34    2      4.60      0.00
   -2   34    2      5.40      0.00
   -1   34    2     -4.29      0.00
    0   34    2      6.19      0.00
  -17   35    2      5.84      0.00
  -16   35    2     -0.87      0.00
  -15   35    2      4.14      0.00
  -14   35    2     -5.72      0.00
  -13   35    2      2.31      0.00
  -12   35    2     -4.86      0.00
  -11   35    2    -11.48      0.00
  -10   35    2      5.09      0.00
   -9   35    2     -2.32      0.00
   -8   35    2     -0.31      0.00
   -7   35    2     -0.52      0.00
   -6   35    2     -5.39      0.00
   -5   35    2      0.70      0.00
   -4   35    2     -1.31      0.00
   -3   35    2     -6.01      0.00
   -2   35    2     -5.44      0.00
   -1   35    2     -1.01      0.00
    0   35    2     -5.90      0.00
  -18   36    2      0.36      0.00
  -17   36    2      3.63      0.00
  -16   36    2     -2.39      0.00
  -15   36    2      2.31      0.00
  -14   36    2      0.72      0.00
  -13   36    2      2.04      0.00
  -12   36    2      2.93      0.00
  -11   36    2      1.33      0.00
  -10   36    2     -4.01      0.00
   -9   36    2      5.15      0.00
   -8   36    2      0.26      0.00
   -7   36    2      0.08      0.00
   -6   36    2      1.43      0.00
   -5   36    2      0.46      0.00
   -4   36    2      4.32      0.00
   -3   36    2     -5.12      0.00
   -2   36    2      2.55      0.00
   -1   36    2     -4.63      0.00
    0   36    2     -7.48      0.00
  -18   37    2      5.12      0.00
  -17   37    2     -2.04      0.00
  -16   37    2     11.71      0.00
  -15   37    2     -7.87      0.00
  -14   37    2      8.42      0.00
  -13   37    2     -2.51      0.00
  -12   37    2     -2.63      0.00
  -11   37    2     -1.95      0.00
  -10   37    2     -1.10      0.00
   -9   37    2     -2.81      0.00
   -8   37    2      1.25      0.00
   -7   37    2     -6.37      0.00
   -6   37    2     -3.08      0.00
   -5   37    2      1.70      0.00
   -4   37    2     -4.73      0.00
   -3   37    2      2.35      0.00
   -2   37    2      3.82      0.00
   -1   37    2      2.65      0.00
    0   37    2      2.19      0.00
  -19   38    2     -3.02      0.00
  -18   38    2      1.02      0.00
  -17   38    2      2.32      0.00
  -16   38    2      0.51      0.00
  -15   38    2      3.11      0.00
  -14   38    2     -1.24      0.00
  -13   38    2      4.23      0.00
  -12   38    2      1.23      0.00
  -11   38    2      1.82      0.00
  -10   38    2     -2.41      0.00
   -9   38    2     -1.31      0.00
   -8   38    2      1.78      0.00
   -7   38    2     -5.15      0.00
   -6   38    2     -3.76      0.00
   -5   38    2     -1.93      0.00
   -4   38    2     -2.94      0.00
   -3   38    2     -3.39      0.00
   -2   38    2      1.54      0.00
   -1   38    2     -2.53      0.00
    0   38    2     -3.19      0.00
  -19   39    2      3.47      0.00
  -18   39    2     -4.60      0.00
  -17   39    2      2.34      0.00
  -16   39    2     -4.55      0.00
  -15   39    2     -2.59      0.00
  -14   39    2      2.46      0.00
  -13   39    2     -0.32      0.00
  -12   39    2      5.90      0.00
  -11   39    2     -2.95      0.00
  -10   39    2      3.29      0.00
   -9   39    2      0.28      0.00
   -8   39    2      3.31      0.00
   -7   39    2      3.09      0.00
   -6   39    2      0.43      0.00
   -5   39    2     -1.13      0.00
   -4   39    2     -4.19      0.00
   -3   39    2     -3.13      0.00
   -2   39    2     -2.86      0.00
   -1   39    2     -1.95      0.00
    0   39    2      1.78      0.00
  -20   40    2     -5.81      0.00
  -19   40    2     -3.88      0.00
  -18   40    2     -2.59      0.00
  -17   40    2     -5.42      0.00
  -16   40    2     -4.81      0.00
  -15   40    2      1.46      0.00
  -14   40    2     -6.11      0.00
  -13   40    2      2.44      0.00
  -12   40    2      0.12      0.00
  -11   40    2    -10.11      0.00
  -10   40    2     -1.55      0.00
   -9   40    2     -1.68      0.00
   -8   40    2     -4.33      0.00
   -7   40    2      1.17      0.00
   -6   40    2     -5.32      0.00
   -5   40    2      2.26      0.00
   -4   40    2      2.32      0.00
   -3   40    2     -3.85      0.00
   -2   40    2      2.26      0.00
   -1   40    2      2.75      0.00
    0   40    2      4.53      0.00
  -20   41    2     -2.71      0.00
  -19   41    2     -2.40      0.00
  -18   41    2     -1.73      0.00
  -17   41    2      3.96      0.00
  -16   41    2     -2.22      0.00
  -15   41    2     -3.72      0.00
  -14   41    2      2.02      0.00
  -13   41    2     -0.65      0.00
  -12   41    2      4.11      0.00
  -11   41    2     -3.07      0.00
  -10   41    2     -0.92      0.00
   -9   41    2     -2.54      0.00
   -8   41    2      0.92      0.00
   -7   41    2      0.22      0.00
   -6   41    2      6.45      0.00
   -5   41    2      1.89      0.00
   -4   41    2      2.92      0.00
   -3   41    2     -3.34      0.00
   -2   41    2     -3.85      0.00
  -21   42    2     -3.80      0.00
  -20   42    2      1.10      0.00
  -19   42    2     -5.10      0.00
  -18   42    2     -2.93      0.00
  -17   42    2     11.87      0.00
  -16   42    2     -5.30      0.00
  -15   42    2      4.94      0.00
  -14   42    2      2.36      0.00
  -13   42    2     -5.06      0.00
  -12   42    2      0.81      0.00
  -11   42    2     -2.70      0.00
  -10   42    2     -1.38      0.00
   -9   42    2     -4.64      0.00
   -8   42    2      4.66      0.00
   -7   42    2      1.25      0.00
   -6   42    2      2.75      0.00
   -5   42    2      0.70      0.00
   -4   42    2     -3.85      0.00
  -21   43    2      1.23      0.00
  -20   43    2     -1.16      0.00
  -19   43    2    -13.50      0.00
  -18   43    2     -1.99      0.00
  -17   43    2     -0.58      0.00
  -16   43    2     -0.46      0.00
  -15   43    2      1.76      0.00
  -14   43    2      0.12      0.00
  -13   43    2      0.91      0.00
  -12   43    2      1.33      0.00
  -11   43    2     -3.27      0.00
  -10   43    2     -1.41      0.00
   -9   43    2     -7.67      0.00
   -8   43    2     -2.35      0.00
   -7   43    2     -0.37      0.00
  -22   44    2      4.41      0.00
  -21   44    2      1.66      0.00
  -20   44    2     -2.26      0.00
  -19   44    2     -5.18      0.00
  -18   44    2      6.21      0.00
  -17   44    2     -3.67      0.00
  -16   44    2      8.49      0.00
  -15   44    2     -4.04      0.00
  -14   44    2      3.19      0.00
  -13   44    2     -2.05      0.00
  -12   44    2     -1.06      0.00
  -11   44    2      3.19      0.00
  -10   44    2     -3.24      0.00
   -9   44    2      1.81      0.00
  -22   45    2      7.89      0.00
  -21   45    2      0.63      0.00
  -20   45    2      5.44      0.00
  -19   45    2      5.98      0.00
  -18   45    2      7.00      0.00
  -17   45    2      0.91      0.00
  -16   45    2      1.71      0.00
  -15   45    2     -4.18      0.00
  -14   45    2      7.84      0.00
  -13   45    2     -6.89      0.00
  -22   46    2      5.84      0.00
  -21   46    2    -12.83      0.00
  -20   46    2      8.22      0.00
  -19   46    2     -9.97      0.00
  -18   46    2     10.57      0.00
    0    0    3    418.68      0.00
    0    1    3   -127.03      0.00
   -1    2    3     63.92      0.00
    0    2    3     71.64      0.00
   -1    3    3    -53.83      0.00
    0    3    3    -59.23      0.00
   -2    4    3     -2.08      0.00
   -1    4    3     35.16      0.00
    0    4    3      3.61      0.00
   -2    5    3     11.64      0.00
   -1    5    3      4.58      0.00
    0    5    3     52.96      0.00
   -3    6    3     -5.31      0.00
   -2    6    3     46.42      0.00
   -1    6    3    -32.90      0.00
    0    6    3    -23.69      0.00
   -3    7    3    -40.70      0.00
   -2    7    3    -23.71      0.00
   -1    7    3    -14.59      0.00
    0    7    3    -62.96      0.00
   -4    8    3     52.20      0.00
   -3    8    3     69.57      0.00
   -2    8    3    -28.04      0.00
   -1    8    3    -40.76      0.00
    0    8    3    -71.63      0.00
   -4    9    3    -31.65      0.00
   -3    9    3    -18.04      0.00
   -2    9    3     38.17      0.00
   -1    9    3      8.87      0.00
    0    9    3     -6.70      0.00
   -5   10    3     48.76      0.00
   -4   10    3     36.88      0.00
   -3   10    3      0.38      0.00
   -2   10    3     -4.30      0.00
   -1   10    3     -3.69      0.00
    0   10    3    -27.69      0.00
   -5   11    3     12.35      0.00
   -4   11    3      7.99      0.00
   -3   11    3     -1.08      0.00
   -2   11    3    -23.37      0.00
   -1   11    3      9.50      0.00
    0   11    3    -11.01      0.00
   -6   12    3    -42.12      0.00
   -5   12    3     -3.21      0.00
   -4   12    3      3.64      0.00
   -3   12    3      8.55      0.00
   -2   12    3    -10.58      0.00
   -1   12    3     12.47      0.00
    0   12    3     -9.76      0.00
   -6   13    3    -10.04      0.00
   -5   13    3     -0.84      0.00
   -4   13    3     -3.94      0.00
   -3   13    3     11.85      0.00
   -2   13    3     -8.62      0.00
   -1   13    3     -7.13      0.00
    0   13    3     -1.37      0.00
   -7   14    3     20.26      0.00
   -6   14    3      9.07      0.00
   -5   14    3      2.95      0.00
   -4   14    3    -11.09      0.00
   -3   14    3    -11.09      0.00
   -2   14    3     12.67      0.00
   -1   14    3     -6.76      0.00
    0   14    3      7.84      0.00
   -7   15    3     -4.37      0.00
   -6   15    3    -11.31      0.00
   -5   15    3     18.70      0.00
   -4   15    3      8.78      0.00
   -3   15    3     -0.76      0.00
   -2   15    3     -5.83      0.00
   -1   15    3      2.54      0.00
    0   15    3     -6.95      0.00
   -8   16    3     21.83      0.00
   -7   16    3     15.96      0.00
   -6   16    3     13.70      0.00
   -5   16    3    -18.97      0.00
   -4   16    3      6.81      0.00
   -3   16    3     -2.81      0.00
   -2   16    3      0.24      0.00
   -1   16    3      8.76      0.00
    0   16    3    -23.30      0.00
   -8   17    3    -11.45      0.00
   -7   17    3      4.35      0.00
   -6   17    3      0.82      0.00
   -5   17    3      2.79      0.00
   -4   17    3     -3.70      0.00
   -3   17    3      3.47      0.00
   -2   17    3     -8.39      0.00
   -1   17    3      8.65      0.00
    0   17    3      0.43      0.00
   -9   18    3     -8.00      0.00
   -8   18    3     29.66      0.00
   -7   18    3      5.64      0.00
   -6   18    3      6.46      0.00
   -5   18    3     23.51      0.00
   -4   18    3     -4.72      0.00
   -3   18    3      9.87      0.00
   -2   18    3    -11.58      0.00
   -1   18    3      3.57      0.00
    0   18    3     -9.79      0.00
   -9   19    3     19.06      0.00
   -8   19    3     -0.29      0.00
   -7   19    3      9.88      0.00
   -6   19    3     15.64      0.00
   -5   19    3     -4.37      0.00
   -4   19    3     -6.22      0.00
   -3   19    3     -7.33      0.00
   -2   19    3      2.54      0.00
   -1   19    3     -2.96      0.00
    0   19    3     -7.77      0.00
  -10   20    3     -2.33      0.00
   -9   20    3      0.52      0.00
   -8   20    3     -4.51      0.00
   -7   20    3     14.02      0.00
   -6   20    3      0.22      0.00
   -5   20    3      5.31      0.00
   -4   20    3     -5.97      0.00
   -3   20    3    -13.37      0.00
   -2   20    3      3.38      0.00
   -1   20    3      1.87      0.00
    0   20    3      0.80      0.00
  -10   21    3     -0.28      0.00
   -9   21    3      8.42      0.00
   -8   21    3     -4.39      0.00
   -7   21    3      0.86      0.00
   -6   21    3     16.46      0.00
   -5   21    3     -8.32      0.00
   -4   21    3     -7.29      0.00
   -3   21    3     -4.03      0.00
   -2   21    3      8.44      0.00
   -1   21    3     -0.98      0.00
    0   21    3     -3.91      0.00
  -11   22    3     11.73      0.00
  -10   22    3     -6.92      0.00
   -9   22    3      4.55      0.00
   -8   22    3      5.08      0.00
   -7   22    3      1.94      0.00
   -6   22    3      1.05      0.00
   -5   22    3     -5.59      0.00
   -4   22    3      5.72      0.00
   -3   22    3    -12.78      0.00
   -2   22    3      6.81      0.00
   -1   22    3      2.31      0.00
    0   22    3      0.34      0.00
  -11   23    3     -2.71      0.00
  -10   23    3      2.29      0.00
   -9   23    3     -3.65      0.00
   -8   23    3     -5.88      0.00
   -7   23    3     -5.05      0.00
   -6   23    3    -13.09      0.00
   -5   23    3     -6.64      0.00
   -4   23    3     -9.24      0.00
   -3   23    3     -3.34      0.00
   -2   23    3      8.48      0.00
   -1   23    3     -4.78      0.00
    0   23    3      7.95      0.00
  -12   24    3     -1.03      0.00
  -11   24    3     -2.52      0.00
  -10   24    3      3.49      0.00
   -9   24    3     -2.27      0.00
   -8   24    3     -2.78      0.00
   -7   24    3      0.65      0.00
   -6   24    3      6.53      0.00
   -5   24    3    -10.26      0.00
   -4   24    3     -3.08      0.00
   -3   24    3      3.89      0.00
   -2   24    3      0.10      0.00
   -1   24    3     -1.37      0.00
    0   24    3     -3.68      0.00
  -12   25    3      2.13      0.00
  -11   25    3      3.71      0.00
  -10   25    3      3.03      0.00
   -9   25    3     -6.53      0.00
   -8   25    3      8.67      0.00
   -7   25    3    -11.49      0.00
   -6   25    3    -14.01      0.00
   -5   25    3      2.42      0.00
   -4   25    3    -10.19      0.00
   -3   25    3      2.91      0.00
   -2   25    3      0.95      0.00
   -1   25    3     -2.72      0.00
    0   25    3      5.91      0.00
  -13   26    3     -3.26      0.00
  -12   26    3     -4.02      0.00
  -11   26    3     -1.77      0.00
  -10   26    3     -7.00      0.00
   -9   26    3      1.53      0.00
   -8   26    3     -2.33      0.00
   -7   26    3     -6.11      0.00
   -6   26    3     -4.80      0.00
   -5   26    3     -2.44      0.00
   -4   26    3    -10.32      0.00
   -3   26    3      6.50      0.00
   -2   26    3     10.81      0.00
   -1   26    3     -4.73      0.00
    0   26    3      5.25      0.00
  -13   27    3      3.77      0.00
  -12   27    3     -2.01      0.00
  -11   27    3      7.42      0.00
  -10   27    3      0.77      0.00
   -9   27    3     -2.74      0.00
   -8   27    3      0.11      0.00
   -7   27    3      2.55      0.00
   -6   27    3      0.34      0.00
   -5   27    3      2.30      0.00
   -4   27    3     -3.61      0.00
   -3   27    3      4.31      0.00
   -2   27    3     12.53      0.00
   -1   27    3     -3.04      0.00
    0   27    3     -7.22      0.00
  -14   28    3      2.43      0.00
  -13   28    3     -3.55      0.00
  -12   28    3      1.54      0.00
  -11   28    3     -2.02      0.00
  -10   28    3     -3.70      0.00
   -9   28    3      5.05      0.00
   -8   28    3      0.33      0.00
   -7   28    3      0.11      0.00
   -6   28    3     -1.61      0.00
   -5   28    3      4.40      0.00
   -4   28    3     -0.25      0.00
   -3   28    3     -0.46      0.00
   -2   28    3      3.34      0.00
   -1   28    3     -2.29      0.00
    0   28    3      0.51      0.00
  -14   29    3     -3.58      0.00
  -13   29    3      0.60      0.00
  -12   29    3     -4.29      0.00
  -11   29    3      7.41      0.00
  -10   29    3     -6.78      0.00
   -9   29    3     -0.20      0.00
   -8   29    3     -2.41      0.00
   -7   29    3     -7.93      0.00
   -6   29    3     -1.15      0.00
   -5   29    3     -6.37      0.00
   -4   29    3      1.10      0.00
   -3   29    3      0.18      0.00
   -2   29    3      5.28      0.00
   -1   29    3      2.88      0.00
    0   29    3      4.03      0.00
  -15   30    3     -1.62      0.00
  -14   30    3      9.11      0.00
  -13   30    3      2.10      0.00
  -12   30    3     -3.40      0.00
  -11   30    3      3.50      0.00
  -10   30    3     -1.47      0.00
   -9   30    3      5.35      0.00
   -8   30    3      2.38      0.00
   -7   30    3      3.54      0.00
   -6   30    3      4.49      0.00
   -5   30    3     -1.03      0.00
   -4   30    3      2.56      0.00
   -3   30    3     -1.07      0.00
   -2   30    3     -4.12      0.00
   -1   30    3     -1.82      0.00
    0   30    3    -10.28      0.00
  -15   31    3     -2.99      0.00
  -14   31    3      8.28      0.00
  -13   31    3     -4.08      0.00
  -12   31    3      0.62      0.00
  -11   31    3     -0.73      0.00
  -10   31    3      0.94      0.00
   -9   31    3     -0.55      0.00
   -8   31    3      4.36      0.00
   -7   31    3     -3.94      0.00
   -6   31    3     -0.92      0.00
   -5   31    3     -0.16      0.00
   -4   31    3      4.88      0.00
   -3   31    3      5.01      0.00
   -2   31    3      6.88      0.00
   -1   31    3      1.27      0.00
    0   31    3      6.62      0.00
  -16   32    3      8.77      0.00
  -15   32    3      0.16      0.00
  -14   32    3      9.64      0.00
  -13   32    3      1.44      0.00
  -12   32    3     13.28      0.00
  -11   32    3     -1.59      0.00
  -10   32    3     -1.41      0.00
   -9   32    3     -3.57      0.00
   -8   32    3      4.53      0.00
   -7   32    3     -2.02      0.00
   -6   32    3      2.39      0.00
   -5   32    3     -5.07      0.00
   -4   32    3     -6.01      0.00
   -3   32    3     -1.15      0.00
   -2   32    3     10.02      0.00
   -1   32    3      1.98      0.00
    0   32    3     -2.64      0.00
  -16   33    3      3.96      0.00
  -15   33    3     -0.22      0.00
  -14   33    3      6.71      0.00
  -13   33    3      3.58      0.00
  -12   33    3      1.27      0.00
  -11   33    3      3.78      0.00
  -10   33    3      3.59      0.00
   -9   33    3      2.08      0.00
   -8   33    3      1.54      0.00
   -7   33    3      1.21      0.00
   -6   33    3      4.91      0.00
   -5   33    3     -0.84      0.00
   -4   33    3     -2.57      0.00
   -3   33    3     -6.67      0.00
   -2   33    3      4.52      0.00
   -1   33    3      5.21      0.00
    0   33    3     -0.21      0.00
  -17   34    3     11.93      0.00
  -16   34    3      1.70      0.00
  -15   34    3     -4.45      0.00
  -14   34    3      4.74      0.00
  -13   34    3     -5.30      0.00
  -12   34    3     12.87      0.00
  -11   34    3      7.52      0.00
  -10   34    3     -6.68      0.00
   -9   34    3     -2.49      0.00
   -8   34    3      7.97      0.00
   -7   34    3     -3.27      0.00
   -6   34    3      0.08      0.00
   -5   34    3     -0.97      0.00
   -4   34    3    -10.98      0.00
   -3   34    3      6.10      0.00
   -2   34    3     -5.97      0.00
   -1   34    3      2.81      0.00
    0   34    3     -7.23      0.00
  -17   35    3      1.59      0.00
  -16   35    3      4.21      0.00
  -15   35    3      1.17      0.00
  -14   35    3      1.20      0.00
  -13   35    3      5.16      0.00
  -12   35    3     -2.07      0.00
  -11   35    3      4.26      0.00
  -10   35    3     -0.09      0.00
   -9   35    3      5.30      0.00
   -8   35    3      1.34      0.00
   -7   35    3      0.55      0.00
   -6   35    3     -0.97      0.00
   -5   35    3     -2.17      0.00
   -4   35    3     -0.95      0.00
   -3   35    3     10.34      0.00
   -2   35    3      0.26      0.00
   -1   35    3      2.68      0.00
    0   35    3     -0.78      0.00
  -18   36    3      8.16      0.00
  -17   36    3     -4.15      0.00
  -16   36    3      3.29      0.00
  -15   36    3      0.45      0.00
  -14   36    3      5.34      0.00
  -13   36    3     -2.00      0.00
  -12   36    3      0.63      0.00
  -11   36    3      1.13      0.00
  -10   36    3     -3.57      0.00
   -9   36    3      4.26      0.00
   -8   36    3      0.52      0.00
   -7   36    3    -13.08      0.00
   -6   36    3     -8.44      0.00
   -5   36    3     -1.15      0.00
   -4   36    3     -2.65      0.00
   -3   36    3      5.88      0.00
   -2   36    3     -1.07      0.00
   -1   36    3     -1.07      0.00
    0   36    3      2.73      0.00
  -18   37    3     -1.76      0.00
  -17   37    3     -1.37      0.00
  -16   37    3     -5.39      0.00
  -15   37    3     -0.39      0.00
  -14   37    3     -0.10      0.00
  -13   37    3      1.62      0.00
  -12   37    3     -0.93      0.00
  -11   37    3      4.18      0.00
  -10   37    3     -3.05      0.00
   -9   37    3      3.75      0.00
   -8   37    3     -6.37      0.00
   -7   37    3      3.45      0.00
   -6   37    3      2.35      0.00
   -5   37    3     11.62      0.00
   -4   37    3      0.87      0.00
   -3   37    3      1.32      0.00
   -2   37    3      1.19      0.00
   -1   37    3     -2.12      0.00
    0   37    3      4.81      0.00
  -19   38    3      9.61      0.00
  -18   38    3     -0.56      0.00
  -17   38    3      2.73      0.00
  -16   38    3     -8.96      0.00
  -15   38    3     -2.89      0.00
  -14   38    3      8.59      0.00
  -13   38    3     -1.14      0.00
  -12   38    3      5.68      0.00
  -11   38    3     -0.21      0.00
  -10   38    3      8.98      0.00
   -9   38    3     -5.53      0.00
   -8   38    3      6.02      0.00
   -7   38    3      0.42      0.00
   -6   38    3      3.81      0.00
   -5   38    3     -0.34      0.00
   -4   38    3     -5.09      0.00
   -3   38    3      1.68      0.00
   -2   38    3     -0.17      0.00
   -1   38    3     -1.92      0.00
    0   38    3      2.56      0.00
  -19   39    3      0.84      0.00
  -18   39    3      6.14      0.00
  -17   39    3      7.49      0.00
  -16   39    3     -0.08      0.00
  -15   39    3     -0.28      0.00
  -14   39    3     -5.15      0.00
  -13   39    3     -6.16      0.00
  -12   39    3    -11.39      0.00
  -11   39    3     -9.64      0.00
  -10   39    3     -8.00      0.00
   -9   39    3     -6.67      0.00
   -8   39    3      1.38      0.00
   -7   39    3      2.92      0.00
   -6   39    3      0.43      0.00
   -5   39    3      2.32      0.00
   -4   39    3     -1.99      0.00
   -3   39    3     -4.24      0.00
   -2   39    3      4.25      0.00
   -1   39    3     -1.53      0.00
    0   39    3    -16.88      0.00
  -20   40    3     -2.14      0.00
  -19   40    3     -3.78      0.00
  -18   40    3     -0.60      0.00
  -17   40    3     -6.76      0.00
  -16   40    3      4.18      0.00
  -15   40    3     -9.65      0.00
  -14   40    3      0.34      0.00
  -13   40    3      3.61      0.00
  -12   40    3     10.27      0.00
  -11   40    3     10.93      0.00
  -10   40    3     -1.08      0.00
   -9   40    3      4.61      0.00
   -8   40    3     -6.96      0.00
   -7   40    3     -8.32      0.00
   -6   40    3      2.32      0.00
   -5   40    3     -4.24      0.00
   -4   40    3      2.34      0.00
   -3   40    3     -6.35      0.00
   -2   40    3      6.80      0.00
   -1   40    3      5.99      0.00
    0   40    3     -7.44      0.00
  -20   41    3      6.68      0.00
  -19   41    3     -4.13      0.00
  -18   41    3      2.87      0.00
  -17   41    3     -3.24      0.00
  -16   41    3      0.38      0.00
  -15   41    3     -4.57      0.00
  -14   41    3     -0.90      0.00
  -13   41    3      0.70      0.00
  -12   41    3     -8.23      0.00
  -11   41    3      0.14      0.00
  -10   41    3      2.11      0.00
   -9   41    3      0.45      0.00
   -8   41    3      2.12      0.00
   -7   41    3     -1.79      0.00
   -6   41    3      6.24      0.00
   -5   41    3     -0.94      0.00
   -4   41    3     -5.74      0.00
   -3   41    3      4.68      0.00
  -21   42    3     -1.09      0.00
  -20   42    3     -6.03      0.00
  -19   42    3     -1.88      0.00
  -18   42    3      3.13      0.00
  -17   42    3      1.88      0.00
  -16   42    3     -1.23      0.00
  -15   42    3     -5.23      0.00
  -14   42    3     -4.49      0.00
  -13   42    3      0.65      0.00
  -12   42    3      0.15      0.00
  -11   42    3      2.35      0.00
  -10   42    3      0.55      0.00
   -9   42    3      0.46      0.00
   -8   42    3     -1.47      0.00
   -7   42    3     -0.25      0.00
   -6   42    3     -1.78      0.00
   -5   42    3      3.41      0.00
  -21   43    3     -6.11      0.00
  -20   43    3      7.08      0.00
  -19   43    3      0.05      0.00
  -18   43    3      2.43      0.00
  -17   43    3      0.09      0.00
  -16   43    3     -2.05      0.00
  -15   43    3      1.79      0.00
  -14   43    3     -8.23      0.00
  -13   43    3      4.63      0.00
  -12   43    3      8.60      0.00
  -11   43    3      2.18      0.00
  -10   43    3     -2.43      0.00
   -9   43    3      4.90      0.00
   -8   43    3     -5.10      0.00
   -7   43    3      1.32      0.00
  -22   44    3      4.06      0.00
  -21   44    3      2.99      0.00
  -20   44    3     -6.11      0.00
  -19   44    3      3.99      0.00
  -18   44    3     -3.81      0.00
  -17   44    3      3.02      0.00
  -16   44    3     -3.44      0.00
  -15   44    3     -3.21      0.00
  -14   44    3      0.81      0.00
  -13   44    3      7.22      0.00
  -12   44    3     -0.82      0.00
  -11   44    3      2.44      0.00
  -10   44    3     -0.79      0.00
  -22   45    3      1.25      0.00
  -21   45    3     -6.86      0.00
  -20   45    3     -0.32      0.00
  -19   45    3      0.25      0.00
  -18   45    3      4.64      0.00
  -17   45    3     -3.64      0.00
  -16   45    3     -1.07      0.00
  -15   45    3      4.21      0.00
  -14   45    3     -4.71      0.00
  -22   46    3     -1.31      0.00
  -21   46    3      0.84      0.00
  -20   46    3      3.83      0.00
    0    0    4     11.07      0.00
    0    1    4     -4.66      0.00
   -1    2    4    -30.66      0.00
    0    2    4    -74.24      0.00
   -1    3    4     21.52      0.00
    0    3    4      3.71      0.00
   -2    4    4    -70.92      0.00
   -1    4    4    -19.02      0.00
    0    4    4    -44.22      0.00
   -2    5    4     14.87      0.00
   -1    5    4     34.00      0.00
    0    5    4    -43.78      0.00
   -3    6    4    -49.59      0.00
   -2    6    4     16.22      0.00
   -1    6    4     -9.58      0.00
    0    6    4     54.21      0.00
   -3    7    4     12.80      0.00
   -2    7    4    -37.77      0.00
   -1    7    4     13.51      0.00
    0    7    4    -29.96      0.00
   -3    8    4     18.65      0.00
   -2    8    4    -50.45      0.00
   -1    8    4     20.71      0.00
    0    8    4    -53.36      0.00
   -4    9    4    -46.98      0.00
   -3    9    4     18.58      0.00
   -2    9    4    -36.86      0.00
   -1    9    4    -18.19      0.00
    0    9    4     -2.30      0.00
   -5   10    4     55.42      0.00
   -4   10    4     34.32      0.00
   -3   10    4     21.84      0.00
   -2   10    4      2.53      0.00
   -1   10    4     -7.35      0.00
    0   10    4     -3.59      0.00
   -5   11    4     12.44      0.00
   -4   11    4     14.79      0.00
   -3   11    4    -36.77      0.00
   -2   11    4     -6.25      0.00
   -1   11    4    -13.01      0.00
    0   11    4      3.20      0.00
   -6   12    4    -26.09      0.00
   -5   12    4    -11.65      0.00
   -4   12    4     -6.27      0.00
   -3   12    4     27.80      0.00
   -2   12    4    -22.83      0.00
   -1   12    4      7.89      0.00
    0   12    4     -2.46      0.00
   -6   13    4     23.95      0.00
   -5   13    4     -0.39      0.00
   -4   13    4      7.68      0.00
   -3   13    4    -15.85      0.00
   -2   13    4     11.98      0.00
   -1   13    4    -10.56      0.00
    0   13    4     26.99      0.00
   -7   14    4    -16.03      0.00
   -6   14    4     -2.67      0.00
   -5   14    4      6.08      0.00
   -4   14    4    -27.69      0.00
   -3   14    4      6.69      0.00
   -2   14    4     12.63      0.00
   -1   14    4    -16.04      0.00
    0   14    4      5.41      0.00
   -7   15    4     -2.68      0.00
   -6   15    4     -6.48      0.00
   -5   15    4     16.20      0.00
   -4   15    4      5.15      0.00
   -3   15    4     -0.85      0.00
   -2   15    4      9.83      0.00
   -1   15    4     -7.16      0.00
    0   15    4     -3.62      0.00
   -8   16    4     19.58      0.00
   -7   16    4     19.21      0.00
   -6   16    4      9.13      0.00
   -5   16    4      6.88      0.00
   -4   16    4     15.85      0.00
   -3   16    4      2.86      0.00
   -2   16    4      6.95      0.00
   -1   16    4     -1.79      0.00
    0   16    4      6.05      0.00
   -8   17    4     15.07      0.00
   -7   17    4      3.06      0.00
   -6   17    4     22.72      0.00
   -5   17    4     14.11      0.00
   -4   17    4    -16.21      0.00
   -3   17    4      9.65      0.00
   -2   17    4     -1.97      0.00
   -1   17    4     -4.99      0.00
    0   17    4     -5.87      0.00
   -9   18    4    -13.63      0.00
   -8   18    4     14.06      0.00
   -7   18    4     -4.51      0.00
   -6   18    4      5.58      0.00
   -5   18    4      8.10      0.00
   -4   18    4    -12.73      0.00
   -3   18    4    -13.18      0.00
   -2   18    4      3.00      0.00
   -1   18    4     -6.51      0.00
    0   18    4      8.43      0.00
   -9   19    4     11.45      0.00
   -8   19    4     17.09      0.00
   -7   19    4      9.58      0.00
   -6   19    4     11.27      0.00
   -5   19    4     -0.90      0.00
   -4   19    4     -3.79      0.00
   -3   19    4     -1.33      0.00
   -2   19    4     -8.39      0.00
   -1   19    4     -7.71      0.00
    0   19    4    -20.17      0.00
  -10   20    4     15.60      0.00
   -9   20    4     -2.91      0.00
   -8   20    4      7.77      0.00
   -7   20    4     12.74      0.00
   -6   20    4     20.17      0.00
   -5   20    4     -4.08      0.00
   -4   20    4     -1.93      0.00
   -3   20    4    -12.66      0.00
   -2   20    4     -0.37      0.00
   -1   20    4     -0.41      0.00
    0   20    4     -4.95      0.00
  -10   21    4     -5.59      0.00
   -9   21    4      6.05      0.00
   -8   21    4      4.41      0.00
   -7   21    4      2.10      0.00
   -6   21    4     12.41      0.00
   -5   21    4      2.16      0.00
   -4   21    4      1.35      0.00
   -3   21    4      0.44      0.00
   -2   21    4    -19.38      0.00
   -1   21    4      2.81      0.00
    0   21    4     -6.81      0.00
  -11   22    4      8.12      0.00
  -10   22    4      6.71      0.00
   -9   22    4      4.40      0.00
   -8   22    4     11.29      0.00
   -7   22    4     -2.69      0.00
   -6   22    4    -14.80      0.00
   -5   22    4      2.85      0.00
   -4   22    4     -0.59      0.00
   -3   22    4      4.43      0.00
   -2   22    4      2.32      0.00
   -1   22    4      0.19      0.00
    0   22    4      4.44      0.00
  -11   23    4     -5.12      0.00
  -10   23    4      1.80      0.00
   -9   23    4      6.18      0.00
   -8   23    4     -5.65      0.00
   -7   23    4      6.63      0.00
   -6   23    4     -2.30      0.00
   -5   23    4     -3.99      0.00
   -4   23    4      5.47      0.00
   -3   23    4     -3.09      0.00
   -2   23    4      2.73      0.00
   -1   23    4     -2.75      0.00
    0   23    4      1.34      0.00
  -12   24    4      7.63      0.00
  -11   24    4      4.26      0.00
  -10   24    4      0.25      0.00
   -9   24    4      2.54      0.00
   -8   24    4    -13.80      0.00
   -7   24    4      2.38      0.00
   -6   24    4     -2.62      0.00
   -5   24    4    -12.98      0.00
   -4   24    4     -4.04      0.00
   -3   24    4      9.37      0.00
   -2   24    4     -3.44      0.00
   -1   24    4      0.17      0.00
    0   24    4      1.87      0.00
  -12   25    4     -2.64      0.00
  -11   25    4      2.81      0.00
  -10   25    4     -4.38      0.00
   -9   25    4     -5.03      0.00
   -8   25    4      1.62      0.00
   -7   25    4     -2.03      0.00
   -6   25    4     -0.10      0.00
   -5   25    4      4.56      0.00
   -4   25    4      3.49      0.00
   -3   25    4      1.56      0.00
   -2   25    4      6.12      0.00
   -1   25    4     -3.27      0.00
    0   25    4      6.04      0.00
  -13   26    4      5.63      0.00
  -12   26    4     -3.66      0.00
  -11   26    4      4.68      0.00
  -10   26    4    -26.28      0.00
   -9   26    4      1.13      0.00
   -8   26    4      1.17      0.00
   -7   26    4     -1.64      0.00
   -6   26    4     -3.37      0.00
   -5   26    4     -4.41      0.00
   -4   26    4     -5.17      0.00
   -3   26    4      4.88      0.00
   -2   26    4     -0.97      0.00
   -1   26    4      0.20      0.00
    0   26    4      3.77      0.00
  -13   27    4      5.63      0.00
  -12   27    4      0.03      0.00
  -11   27    4     -1.59      0.00
  -10   27    4      1.56      0.00
   -9   27    4     -5.47      0.00
   -8   27    4     -0.10      0.00
   -7   27    4    -12.68      0.00
   -6   27    4     -0.33      0.00
   -5   27    4      0.70      0.00
   -4   27    4     -1.04      0.00
   -3   27    4     -0.58      0.00
   -2   27    4     -2.71      0.00
   -1   27    4     -3.89      0.00
    0   27    4     -6.39      0.00
  -14   28    4     -4.16      0.00
  -13   28    4     12.54      0.00
  -12   28    4     -1.24      0.00
  -11   28    4      2.38      0.00
  -10   28    4      3.99      0.00
   -9   28    4      0.08      0.00
   -8   28    4      9.51      0.00
   -7   28    4    -10.88      0.00
   -6   28    4      6.65      0.00
   -5   28    4      7.86      0.00
   -4   28    4     -0.94      0.00
   -3   28    4      3.46      0.00
   -2   28    4      1.62      0.00
   -1   28    4     11.63      0.00
    0   28    4      2.78      0.00
  -14   29    4     -1.19      0.00
  -13   29    4     -2.75      0.00
  -12   29    4     -1.31      0.00
  -11   29    4      1.19      0.00
  -10   29    4     -5.40      0.00
   -9   29    4     -3.62      0.00
   -8   29    4     -0.35      0.00
   -7   29    4    -11.58      0.00
   -6   29    4     -0.73      0.00
   -5   29    4     -4.28      0.00
   -4   29    4     -1.97      0.00
   -3   29    4      4.40      0.00
   -2   29    4     -2.63      0.00
   -1   29    4      9.04      0.00
    0   29    4      4.54      0.00
  -15   30    4     -2.65      0.00
  -14   30    4      4.05      0.00
  -13   30    4      1.80      0.00
  -12   30    4    -10.20      0.00
  -11   30    4      0.67      0.00
  -10   30    4     -2.45      0.00
   -9   30    4      0.20      0.00
   -8   30    4     -0.97      0.00
   -7   30    4      3.61      0.00
   -6   30    4     -8.07      0.00
   -5   30    4      0.66      0.00
   -4   30    4     -2.87      0.00
   -3   30    4      0.05      0.00
   -2   30    4     -1.77      0.00
   -1   30    4     -2.00      0.00
    0   30    4      5.62      0.00
  -15   31    4     -0.36      0.00
  -14   31    4     10.59      0.00
  -13   31    4     -0.39      0.00
  -12   31    4      8.17      0.00
  -11   31    4      0.28      0.00
  -10   31    4      4.27      0.00
   -9   31    4      1.90      0.00
   -8   31    4      7.71      0.00
   -7   31    4      2.17      0.00
   -6   31    4      3.46      0.00
   -5   31    4      6.24      0.00
   -4   31    4      1.96      0.00
   -3   31    4     -2.00      0.00
   -2   31    4      7.10      0.00
   -1   31    4      5.94      0.00
    0   31    4      6.33      0.00
  -16   32    4      5.57      0.00
  -15   32    4      3.25      0.00
  -14   32    4     10.59      0.00
  -13   32    4      6.59      0.00
  -12   32    4     17.96      0.00
  -11   32    4      1.06      0.00
  -10   32    4    -26.85      0.00
   -9   32    4     -1.37      0.00
   -8   32    4     13.30      0.00
   -7   32    4      0.06      0.00
   -6   32    4      5.77      0.00
   -5   32    4     -0.50      0.00
   -4   32    4     -4.83      0.00
   -3   32    4      2.64      0.00
   -2   32    4      4.44      0.00
   -1   32    4      6.43      0.00
    0   32    4     19.82      0.00
  -16   33    4     -3.23      0.00
  -15   33    4     11.73      0.00
  -14   33    4      7.48      0.00
  -13   33    4     10.53      0.00
  -12   33    4      9.92      0.00
  -11   33    4      8.01      0.00
  -10   33    4      4.66      0.00
   -9   33    4     12.73      0.00
   -8   33    4      4.46      0.00
   -7   33    4      3.46      0.00
   -6   33    4      6.92      0.00
   -5   33    4     -2.03      0.00
   -4   33    4      2.01      0.00
   -3   33    4    -18.22      0.00
   -2   33    4      3.46      0.00
   -1   33    4      3.97      0.00
    0   33    4      4.36      0.00
  -17   34    4     10.78      0.00
  -16   34    4      1.08      0.00
  -15   34    4      8.80      0.00
  -14   34    4      8.61      0.00
  -13   34    4     10.76      0.00
  -12   34    4     12.91      0.00
  -11   34    4      8.95      0.00
  -10   34    4     10.38      0.00
   -9   34    4      8.36      0.00
   -8   34    4      2.37      0.00
   -7   34    4      0.62      0.00
   -6   34    4      0.29      0.00
   -5   34    4      3.13      0.00
   -4   34    4      2.88      0.00
   -3   34    4      6.79      0.00
   -2   34    4     24.33      0.00
   -1   34    4      1.17      0.00
    0   34    4    -14.12      0.00
  -17   35    4     -1.08      0.00
  -16   35    4     10.87      0.00
  -15   35    4      8.95      0.00
  -14   35    4      2.23      0.00
  -13   35    4      8.11      0.00
  -12   35    4      6.63      0.00
  -11   35    4      6.40      0.00
  -10   35    4      5.71      0.00
   -9   35    4      0.04      0.00
   -8   35    4      3.36      0.00
   -7   35    4     -3.09      0.00
   -6   35    4     -7.40      0.00
   -5   35    4    -12.78      0.00
   -4   35    4     -0.74      0.00
   -3   35    4     14.73      0.00
   -2   35    4      4.56      0.00
   -1   35    4     -5.26      0.00
    0   35    4      3.82      0.00
  -18   36    4     -1.57      0.00
  -17   36    4    -12.81      0.00
  -16   36    4     -1.17      0.00
  -15   36    4      3.88      0.00
  -14   36    4      3.53      0.00
  -13   36    4    -11.26      0.00
  -12   36    4     -0.67      0.00
  -11   36    4     -5.69      0.00
  -10   36    4     -1.93      0.00
   -9   36    4      7.72      0.00
   -8   36    4     -2.65      0.00
   -7   36    4      1.67      0.00
   -6   36    4      3.68      0.00
   -5   36    4      5.94      0.00
   -4   36    4     17.90      0.00
   -3   36    4      0.36      0.00
   -2   36    4     -5.72      0.00
   -1   36    4     -0.49      0.00
    0   36    4      1.14      0.00
  -18   37    4     -8.68      0.00
  -17   37    4     -2.33      0.00
  -16   37    4      1.66      0.00
  -15   37    4      0.46      0.00
  -14   37    4      0.81      0.00
  -13   37    4      1.00      0.00
  -12   37    4      2.75      0.00
  -11   37    4      1.06      0.00
  -10   37    4     -0.95      0.00
   -9   37    4      4.41      0.00
   -8   37    4     -0.56      0.00
   -7   37    4     -4.03      0.00
   -6   37    4     -0.21      0.00
   -5   37    4      8.92      0.00
   -4   37    4      6.08      0.00
   -3   37    4     -5.12      0.00
   -2   37    4      2.53      0.00
   -1   37    4     -1.78      0.00
    0   37    4      0.51      0.00
  -19   38    4      3.35      0.00
  -18   38    4      1.67      0.00
  -17   38    4      2.07      0.00
  -16   38    4      1.21      0.00
  -15   38    4      3.65      0.00
  -14   38    4     -7.07      0.00
  -13   38    4      2.74      0.00
  -12   38    4     -2.38      0.00
  -11   38    4     -3.83      0.00
  -10   38    4     -0.23      0.00
   -9   38    4     -0.83      0.00
   -8   38    4     -1.96      0.00
   -7   38    4    -13.49      0.00
   -6   38    4     -3.41      0.00
   -5   38    4      4.90      0.00
   -4   38    4     -1.58      0.00
   -3   38    4      0.38      0.00
   -2   38    4     -4.77      0.00
   -1   38    4      2.53      0.00
    0   38    4     -0.69      0.00
  -19   39    4      9.86      0.00
  -18   39    4     -0.64      0.00
  -17   39    4      2.86      0.00
  -16   39    4     -1.27      0.00
  -15   39    4      3.51      0.00
  -14   39    4     -0.71      0.00
  -13   39    4     -1.47      0.00
  -12   39    4     -1.90      0.00
  -11   39    4     -4.34      0.00
  -10   39    4     -3.92      0.00
   -9   39    4      1.21      0.00
   -8   39    4      3.06      0.00
   -7   39    4     -3.24      0.00
   -6   39    4     -0.38      0.00
   -5   39    4     -4.99      0.00
   -4   39    4     -0.32      0.00
   -3   39    4     -0.65      0.00
   -2   39    4     -2.62      0.00
   -1   39    4      1.95      0.00
    0   39    4      1.40      0.00
  -20   40    4      5.49      0.00
  -19   40    4     -0.28      0.00
  -18   40    4      1.66      0.00
  -17   40    4     -0.65      0.00
  -16   40    4      1.33      0.00
  -15   40    4     10.32      0.00
  -14   40    4     -2.13      0.00
  -13   40    4     -2.74      0.00
  -12   40    4      2.33      0.00
  -11   40    4      0.73      0.00
  -10   40    4     -9.29      0.00
   -9   40    4     -1.94      0.00
   -8   40    4     -1.47      0.00
   -7   40    4      3.70      0.00
   -6   40    4     -1.26      0.00
   -5   40    4     -3.39      0.00
   -4   40    4      3.14      0.00
   -3   40    4      4.14      0.00
   -2   40    4      0.99      0.00
   -1   40    4      2.24      0.00
  -20   41    4     -0.30      0.00
  -19   41    4     -9.15      0.00
  -18   41    4     -1.20      0.00
  -17   41    4     -5.13      0.00
  -16   41    4    -11.83      0.00
  -15   41    4      5.29      0.00
  -14   41    4     12.00      0.00
  -13   41    4     -0.07      0.00
  -12   41    4     10.34      0.00
  -11   41    4      5.90      0.00
  -10   41    4     -7.36      0.00
   -9   41    4     -0.13      0.00
   -8   41    4     -1.03      0.00
   -7   41    4     -4.54      0.00
   -6   41    4     -5.95      0.00
   -5   41    4     -0.39      0.00
   -4   41    4      8.46      0.00
   -3   41    4      2.36      0.00
  -21   42    4      4.25      0.00
  -20   42    4     -1.01      0.00
  -19   42    4     -0.79      0.00
  -18   42    4      0.54      0.00
  -17   42    4      7.56      0.00
  -16   42    4     -2.26      0.00
  -15   42    4     -5.80      0.00
  -14   42    4     -2.88      0.00
  -13   42    4      2.28      0.00
  -12   42    4      2.65      0.00
  -11   42    4     -4.14      0.00
  -10   42    4      2.45      0.00
   -9   42    4      2.25      0.00
   -8   42    4      5.17      0.00
   -7   42    4      0.35      0.00
   -6   42    4     -1.51      0.00
  -21   43    4     -5.76      0.00
  -20   43    4     -3.63      0.00
  -19   43    4     -1.06      0.00
  -18   43    4      1.19      0.00
  -17   43    4     -4.85      0.00
  -16   43    4    -19.65      0.00
  -15   43    4      2.62      0.00
  -14   43    4     15.42      0.00
  -13   43    4      7.24      0.00
  -12   43    4     11.44      0.00
  -11   43    4      2.19      0.00
  -10   43    4      8.19      0.00
   -9   43    4      6.33      0.00
   -8   43    4     -6.35      0.00
  -22   44    4     -3.02      0.00
  -21   44    4     -0.64      0.00
  -20   44    4     -3.78      0.00
  -19   44    4      4.99      0.00
  -18   44    4      0.16      0.00
  -17   44    4    -13.41      0.00
  -16   44    4    -10.79      0.00
  -15   44    4      3.03      0.00
  -14   44    4     10.58      0.00
  -13   44    4      0.76      0.00
  -12   44    4     -0.10      0.00
  -22   45    4     -4.87      0.00
  -21   45    4      0.66      0.00
  -20   45    4      8.90      0.00
  -19   45    4      5.09      0.00
  -18   45    4    -13.30      0.00
  -17   45    4     -3.00      0.00
  -16   45    4     15.75      0.00
    0    0    5     77.81      0.00
    0    1    5    -52.36      0.00
   -1    2    5      4.46      0.00
    0    2    5      9.56      0.00
   -1    3    5    -42.87      0.00
    0    3    5    -18.27      0.00
   -2    4    5    -47.45      0.00
   -1    4    5      6.49      0.00
    0    4    5    -48.77      0.00
   -2    5    5     22.39      0.00
   -1    5    5      4.67      0.00
    0    5    5     10.50      0.00
   -3    6    5    -66.51      0.00
   -2    6    5      2.71      0.00
   -1    6    5    -24.81      0.00
    0    6    5    -12.20      0.00
   -3    7    5     -2.70      0.00
   -2    7    5     -6.98      0.00
   -1    7    5     -8.14      0.00
    0    7    5      7.27      0.00
   -4    8    5      9.51      0.00
   -3    8    5     15.56      0.00
   -2    8    5    -25.81      0.00
   -1    8    5    -23.79      0.00
    0    8    5    -17.54      0.00
   -4    9    5    -16.54      0.00
   -3    9    5     -9.60      0.00
   -2    9    5      8.15      0.00
   -1    9    5     -3.32      0.00
    0    9    5     -1.54      0.00
   -5   10    5     -9.41      0.00
   -4   10    5      1.28      0.00
   -3   10    5    -49.04      0.00
   -2   10    5      5.73      0.00
   -1   10    5    -36.64      0.00
    0   10    5     16.97      0.00
   -5   11    5     12.79      0.00
   -4   11    5     27.98      0.00
   -3   11    5     -0.63      0.00
   -2   11    5     -1.49      0.00
   -1   11    5     -7.77      0.00
    0   11    5     -8.78      0.00
   -6   12    5     -4.78      0.00
   -5   12    5    -41.73      0.00
   -4   12    5     -6.95      0.00
   -3   12    5     -7.02      0.00
   -2   12    5    -11.33      0.00
   -1   12    5      3.23      0.00
    0   12    5     -8.85      0.00
   -6   13    5     28.97      0.00
   -5   13    5     -3.71      0.00
   -4   13    5     -7.35      0.00
   -3   13    5      5.81      0.00
   -2   13    5     -6.76      0.00
   -1   13    5    -11.20      0.00
    0   13    5      8.61      0.00
   -7   14    5     32.28      0.00
   -6   14    5     12.02      0.00
   -5   14    5      9.98      0.00
   -4   14    5      5.70      0.00
   -3   14    5      4.85      0.00
   -2   14    5     11.57      0.00
   -1   14    5      1.22      0.00
    0   14    5     14.10      0.00
   -7   15    5     -7.88      0.00
   -6   15    5     -6.84      0.00
   -5   15    5     19.69      0.00
   -4   15    5     -4.76      0.00
   -3   15    5      1.47      0.00
   -2   15    5      1.40      0.00
   -1   15    5     -5.91      0.00
    0   15    5      1.04      0.00
   -8   16    5      2.36      0.00
   -7   16    5     22.64      0.00
   -6   16    5     -0.32      0.00
   -5   16    5     -1.75      0.00
   -4   16    5     10.14      0.00
   -3   16    5     -0.61      0.00
   -2   16    5      0.10      0.00
   -1   16    5     -4.59      0.00
    0   16    5    -11.74      0.00
   -8   17    5     -0.84      0.00
   -7   17    5     12.05      0.00
   -6   17    5     13.48      0.00
   -5   17    5      4.65      0.00
   -4   17    5      3.76      0.00
   -3   17    5     -4.34      0.00
   -2   17    5      7.15      0.00
   -1   17    5     -8.89      0.00
    0   17    5      4.66      0.00
   -9   18    5      7.02      0.00
   -8   18    5     -2.53      0.00
   -7   18    5      6.13      0.00
   -6   18    5      3.39      0.00
   -5   18    5     11.97      0.00
   -4   18    5      5.16      0.00
   -3   18    5      1.48      0.00
   -2   18    5    -16.84      0.00
   -1   18    5     -6.10      0.00
    0   18    5     -9.95      0.00
   -9   19    5     15.55      0.00
   -8   19    5     11.67      0.00
   -7   19    5      5.57      0.00
   -6   19    5     -1.58      0.00
   -5   19    5     -7.01      0.00
   -4   19    5     19.07      0.00
   -3   19    5     -2.28      0.00
   -2   19    5     -4.69      0.00
   -1   19    5     -2.63      0.00
    0   19    5     13.79      0.00
  -10   20    5      5.69      0.00
   -9   20    5      7.48      0.00
   -8   20    5     -5.97      0.00
   -7   20    5     13.28      0.00
   -6   20    5      0.05      0.00
   -5   20    5      5.54      0.00
   -4   20    5     -5.97      0.00
   -3   20    5    -17.89      0.00
   -2   20    5     -4.51      0.00
   -1   20    5     -4.80      0.00
    0   20    5     -9.25      0.00
  -10   21    5      1.91      0.00
   -9   21    5     16.05      0.00
   -8   21    5     -8.63      0.00
   -7   21    5      0.01      0.00
   -6   21    5     12.77      0.00
   -5   21    5     -0.14      0.00
   -4   21    5     12.29      0.00
   -3   21    5     -1.94      0.00
   -2   21    5     -9.44      0.00
   -1   21    5     -1.36      0.00
    0   21    5     -6.57      0.00
  -11   22    5     13.52      0.00
  -10   22    5      2.60      0.00
   -9   22    5      3.25      0.00
   -8   22    5      9.70      0.00
   -7   22    5      3.46      0.00
   -6   22    5     -3.41      0.00
   -5   22    5     -2.94      0.00
   -4   22    5      7.82      0.00
   -3   22    5     12.89      0.00
   -2   22    5     -2.85      0.00
   -1   22    5     -5.62      0.00
    0   22    5      4.21      0.00
  -11   23    5      4.71      0.00
  -10   23    5     -0.28      0.00
   -9   23    5      4.42      0.00
   -8   23    5      1.99      0.00
   -7   23    5     -3.22      0.00
   -6   23    5     -4.50      0.00
   -5   23    5      1.40      0.00
   -4   23    5     -0.83      0.00
   -3   23    5      1.30      0.00
   -2   23    5     -6.75      0.00
   -1   23    5     -3.52      0.00
    0   23    5     -4.34      0.00
  -12   24    5     11.09      0.00
  -11   24    5     -4.71      0.00
  -10   24    5     11.33      0.00
   -9   24    5      0.22      0.00
   -8   24    5      7.79      0.00
   -7   24    5     -1.49      0.00
   -6   24    5     -1.89      0.00
   -5   24    5    -14.17      0.00
   -4   24    5     -1.30      0.00
   -3   24    5      3.17      0.00
   -2   24    5     -5.97      0.00
   -1   24    5     -0.39      0.00
    0   24    5      0.06      0.00
  -12   25    5      2.16      0.00
  -11   25    5     -5.90      0.00
  -10   25    5      0.81      0.00
   -9   25    5      0.69      0.00
   -8   25    5     -0.60      0.00
   -7   25    5      3.63      0.00
   -6   25    5     -1.91      0.00
   -5   25    5     14.01      0.00
   -4   25    5      0.08      0.00
   -3   25    5      7.56      0.00
   -2   25    5     -1.30      0.00
   -1   25    5     -2.15      0.00
    0   25    5     11.22      0.00
  -13   26    5     -7.64      0.00
  -12   26    5      6.31      0.00
  -11   26    5     -2.03      0.00
  -10   26    5      0.33      0.00
   -9   26    5      3.30      0.00
   -8   26    5      0.31      0.00
   -7   26    5     -9.30      0.00
   -6   26    5     -1.05      0.00
   -5   26    5     10.35      0.00
   -4   26    5     -4.49      0.00
   -3   26    5      4.08      0.00
   -2   26    5      0.19      0.00
   -1   26    5     -1.04      0.00
    0   26    5     18.13      0.00
  -13   27    5      5.76      0.00
  -12   27    5     -2.65      0.00
  -11   27    5      6.22      0.00
  -10   27    5     -3.87      0.00
   -9   27    5    -10.56      0.00
   -8   27    5     -0.62      0.00
   -7   27    5    -11.06      0.00
   -6   27    5     -2.79      0.00
   -5   27    5     10.05      0.00
   -4   27    5     -7.22      0.00
   -3   27    5     -5.15      0.00
   -2   27    5     -5.56      0.00
   -1   27    5     -1.70      0.00
    0   27    5     -2.18      0.00
  -14   28    5     -2.71      0.00
  -13   28    5     -1.46      0.00
  -12   28    5     -4.75      0.00
  -11   28    5    -12.56      0.00
  -10   28    5     -6.18      0.00
   -9   28    5    -11.06      0.00
   -8   28    5      5.11      0.00
   -7   28    5      0.95      0.00
   -6   28    5      1.81      0.00
   -5   28    5      1.90      0.00
   -4   28    5      0.43      0.00
   -3   28    5     -1.95      0.00
   -2   28    5     -0.54      0.00
   -1   28    5     -1.37      0.00
    0   28    5    -11.43      0.00
  -14   29    5     -5.32      0.00
  -13   29    5      1.40      0.00
  -12   29    5     -3.16      0.00
  -11   29    5      5.57      0.00
  -10   29    5     -5.19      0.00
   -9   29    5     -1.41      0.00
   -8   29    5     -1.03      0.00
   -7   29    5     -4.55      0.00
   -6   29    5      0.75      0.00
   -5   29    5     -2.45      0.00
   -4   29    5     -6.27      0.00
   -3   29    5      4.81      0.00
   -2   29    5      4.13      0.00
   -1   29    5      1.24      0.00
    0   29    5      7.71      0.00
  -15   30    5     -1.41      0.00
  -14   30    5      5.22      0.00
  -13   30    5     -0.92      0.00
  -12   30    5     16.09      0.00
  -11   30    5      4.26      0.00
  -10   30    5    -19.98      0.00
   -9   30    5      0.27      0.00
   -8   30    5    -17.36      0.00
   -7   30    5      2.48      0.00
   -6   30    5      7.34      0.00
   -5   30    5      2.90      0.00
   -4   30    5      0.31      0.00
   -3   30    5     -2.77      0.00
   -2   30    5      1.80      0.00
   -1   30    5      3.72      0.00
    0   30    5      2.51      0.00
  -15   31    5      4.40      0.00
  -14   31    5     11.99      0.00
  -13   31    5      7.63      0.00
  -12   31    5      8.61      0.00
  -11   31    5      1.54      0.00
  -10   31    5      9.12      0.00
   -9   31    5      4.17      0.00
   -8   31    5      7.78      0.00
   -7   31    5      6.80      0.00
   -6   31    5      0.43      0.00
   -5   31    5      2.97      0.00
   -4   31    5      0.05      0.00
   -3   31    5     -1.32      0.00
   -2   31    5      3.09      0.00
   -1   31    5     23.07      0.00
    0   31    5      2.49      0.00
  -16   32    5     -1.85      0.00
  -15   32    5      3.79      0.00
  -14   32    5      1.97      0.00
  -13   32    5      9.50      0.00
  -12   32    5     14.37      0.00
  -11   32    5      7.68      0.00
  -10   32    5     14.97      0.00
   -9   32    5      9.35      0.00
   -8   32    5      6.82      0.00
   -7   32    5      5.82      0.00
   -6   32    5      5.63      0.00
   -5   32    5      1.18      0.00
   -4   32    5     -1.03      0.00
   -3   32    5     -1.94      0.00
   -2   32    5      1.43      0.00
   -1   32    5     10.18      0.00
    0   32    5      8.92      0.00
  -16   33    5     -3.23      0.00
  -15   33    5     10.02      0.00
  -14   33    5      9.72      0.00
  -13   33    5      7.46      0.00
  -12   33    5      7.90      0.00
  -11   33    5      8.34      0.00
  -10   33    5      5.78      0.00
   -9   33    5      7.52      0.00
   -8   33    5     -5.72      0.00
   -7   33    5      5.07      0.00
   -6   33    5     11.74      0.00
   -5   33    5      7.28      0.00
   -4   33    5     -2.18      0.00
   -3   33    5    -12.99      0.00
   -2   33    5     -0.07      0.00
   -1   33    5     10.52      0.00
    0   33    5      2.44      0.00
  -17   34    5     14.61      0.00
  -16   34    5     -0.57      0.00
  -15   34    5     11.77      0.00
  -14   34    5      6.09      0.00
  -13   34    5     14.55      0.00
  -12   34    5      5.22      0.00
  -11   34    5     15.77      0.00
  -10   34    5      0.90      0.00
   -9   34    5     -2.19      0.00
   -8   34    5      2.58      0.00
   -7   34    5      3.66      0.00
   -6   34    5      0.85      0.00
   -5   34    5      2.85      0.00
   -4   34    5      0.09      0.00
   -3   34    5      2.61      0.00
   -2   34    5     19.87      0.00
   -1   34    5      4.15      0.00
    0   34    5    -11.88      0.00
  -17   35    5      0.29      0.00
  -16   35    5     14.08      0.00
  -15   35    5      2.15      0.00
  -14   35    5      1.85      0.00
  -13   35    5      3.63      0.00
  -12   35    5     12.70      0.00
  -11   35    5      4.08      0.00
  -10   35    5      5.26      0.00
   -9   35    5     -1.58      0.00
   -8   35    5     -0.41      0.00
   -7   35    5      0.01      0.00
   -6   35    5     -4.18      0.00
   -5   35    5     -6.22      0.00
   -4   35    5      3.53      0.00
   -3   35    5     19.61      0.00
   -2   35    5      3.60      0.00
   -1   35    5     -6.42      0.00
    0   35    5     -3.06      0.00
  -18   36    5      4.27      0.00
  -17   36    5      3.89      0.00
  -16   36    5     13.92      0.00
  -15   36    5      7.73      0.00
  -14   36    5      8.63      0.00
  -13   36    5      6.16      0.00
  -12   36    5      5.41      0.00
  -11   36    5     -3.10      0.00
  -10   36    5     -2.01      0.00
   -9   36    5      2.41      0.00
   -8   36    5    -10.95      0.00
   -7   36    5      2.45      0.00
   -6   36    5      2.44      0.00
   -5   36    5     -0.19      0.00
   -4   36    5      8.94      0.00
   -3   36    5      1.59      0.00
   -2   36    5     -7.24      0.00
   -1   36    5      1.75      0.00
    0   36    5      0.53      0.00
  -18   37    5     -8.19      0.00
  -17   37    5     -2.92      0.00
  -16   37    5      2.79      0.00
  -15   37    5     -2.37      0.00
  -14   37    5      3.22      0.00
  -13   37    5     -1.77      0.00
  -12   37    5      1.54      0.00
  -11   37    5     -3.63      0.00
  -10   37    5      1.35      0.00
   -9   37    5     -1.50      0.00
   -8   37    5     -0.04      0.00
   -7   37    5     -3.70      0.00
   -6   37    5      1.06      0.00
   -5   37    5      5.91      0.00
   -4   37    5      3.14      0.00
   -3   37    5     -0.75      0.00
   -2   37    5     -0.66      0.00
   -1   37    5     -0.08      0.00
    0   37    5     -3.17      0.00
  -19   38    5     -2.66      0.00
  -18   38    5     -4.70      0.00
  -17   38    5      1.69      0.00
  -16   38    5     -2.54      0.00
  -15   38    5     -4.35      0.00
  -14   38    5     -0.95      0.00
  -13   38    5      1.00      0.00
  -12   38    5      5.71      0.00
  -11   38    5     -1.18      0.00
  -10   38    5     -1.71      0.00
   -9   38    5     -0.03      0.00
   -8   38    5      0.12      0.00
   -7   38    5     -5.39      0.00
   -6   38    5     -3.37      0.00
   -5   38    5      3.55      0.00
   -4   38    5    -10.29      0.00
   -3   38    5      1.35      0.00
   -2   38    5      0.36      0.00
   -1   38    5      3.99      0.00
    0   38    5      5.41      0.00
  -19   39    5      6.57      0.00
  -18   39    5     -0.45      0.00
  -17   39    5      1.14      0.00
  -16   39    5     -0.76      0.00
  -15   39    5      3.14      0.00
  -14   39    5      0.74      0.00
  -13   39    5      5.44      0.00
  -12   39    5     -4.80      0.00
  -11   39    5     -8.31      0.00
  -10   39    5     -3.97      0.00
   -9   39    5     -3.08      0.00
   -8   39    5      3.33      0.00
   -7   39    5      2.43      0.00
   -6   39    5     -1.47      0.00
   -5   39    5     -1.97      0.00
   -4   39    5     -1.75      0.00
   -3   39    5     -4.65      0.00
   -2   39    5      2.83      0.00
   -1   39    5     -2.66      0.00
    0   39    5     -7.57      0.00
  -20   40    5      5.48      0.00
  -19   40    5     -0.12      0.00
  -18   40    5      0.28      0.00
  -17   40    5     -6.76      0.00
  -16   40    5      2.70      0.00
  -15   40    5     -5.58      0.00
  -14   40    5     -8.73      0.00
  -13   40    5      3.93      0.00
  -12   40    5     12.84      0.00
  -11   40    5      1.19      0.00
  -10   40    5      0.14      0.00
   -9   40    5     -0.14      0.00
   -8   40    5     -2.53      0.00
   -7   40    5      3.90      0.00
   -6   40    5      2.21      0.00
   -5   40    5      1.96      0.00
   -4   40    5     -0.70      0.00
   -3   40    5     -4.75      0.00
   -2   40    5      5.34      0.00
  -20   41    5     -1.86      0.00
  -19   41    5      1.83      0.00
  -18   41    5      3.80      0.00
  -17   41    5      5.87      0.00
  -16   41    5      2.27      0.00
  -15   41    5      1.05      0.00
  -14   41    5      1.73      0.00
  -13   41    5      7.26      0.00
  -12   41    5      4.11      0.00
  -11   41    5      4.32      0.00
  -10   41    5     -0.75      0.00
   -9   41    5     -2.23      0.00
   -8   41    5     -7.59      0.00
   -7   41    5      2.15      0.00
   -6   41    5     -1.51      0.00
   -5   41    5     -7.29      0.00
   -4   41    5     -1.91      0.00
  -21   42    5      1.67      0.00
  -20   42    5     -3.10      0.00
  -19   42    5     -1.47      0.00
  -18   42    5     -3.96      0.00
  -17   42    5      2.50      0.00
  -16   42    5      0.99      0.00
  -15   42    5    -10.18      0.00
  -14   42    5      0.30      0.00
  -13   42    5      2.91      0.00
  -12   42    5      0.85      0.00
  -11   42    5      2.33      0.00
  -10   42    5      2.10      0.00
   -9   42    5      1.04      0.00
   -8   42    5      2.56      0.00
   -7   42    5      3.85      0.00
  -21   43    5     -8.12      0.00
  -20   43    5      0.61      0.00
  -19   43    5      0.41      0.00
  -18   43    5    -13.92      0.00
  -17   43    5      3.23      0.00
  -16   43    5     16.61      0.00
  -15   43    5      0.44      0.00
  -14   43    5     -0.62      0.00
  -13   43    5      5.07      0.00
  -12   43    5      0.75      0.00
  -11   43    5      8.41      0.00
  -10   43    5      2.47      0.00
  -22   44    5      1.52      0.00
  -21   44    5     -1.46      0.00
  -20   44    5      2.10      0.00
  -19   44    5     -0.04      0.00
  -18   44    5      1.31      0.00
  -17   44    5     19.70      0.00
  -16   44    5      2.43      0.00
  -15   44    5     -2.04      0.00
  -14   44    5      4.67      0.00
  -13   44    5      5.05      0.00
  -22   45    5    -17.06      0.00
  -21   45    5      1.88      0.00
  -20   45    5     -1.60      0.00
  -19   45    5     -4.44      0.00
    0    0    6     50.56      0.00
    0    1    6    -40.02      0.00
   -1    2    6     16.84      0.00
    0    2    6     -7.45      0.00
   -1    3    6    -10.86      0.00
    0    3    6     22.42      0.00
   -2    4    6    -24.28      0.00
   -1    4    6     -2.67      0.00
    0    4    6    -39.57      0.00
   -2    5    6      7.74      0.00
   -1    5    6     -7.85      0.00
    0    5    6      1.76      0.00
   -3    6    6    -55.96      0.00
   -2    6    6     23.98      0.00
   -1    6    6    -27.69      0.00
    0    6    6     19.24      0.00
   -3    7    6    -23.12      0.00
   -2    7    6    -17.94      0.00
   -1    7    6    -22.02      0.00
    0    7    6      9.32      0.00
   -4    8    6     15.79      0.00
   -3    8    6     -5.35      0.00
   -2    8    6      2.68      0.00
   -1    8    6    -17.34      0.00
    0    8    6    -33.62      0.00
   -4    9    6    -24.46      0.00
   -3    9    6     -6.59      0.00
   -2    9    6      1.84      0.00
   -1    9    6      0.96      0.00
    0    9    6     -8.40      0.00
   -5   10    6      3.61      0.00
   -4   10    6      9.44      0.00
   -3   10    6    -30.88      0.00
   -2   10    6    -12.26      0.00
   -1   10    6    -11.37      0.00
    0   10    6    -16.20      0.00
   -5   11    6    -11.64      0.00
   -4   11    6     -6.46      0.00
   -3   11    6     -3.79      0.00
   -2   11    6    -14.93      0.00
   -1   11    6     -4.77      0.00
    0   11    6    -10.50      0.00
   -6   12    6      4.08      0.00
   -5   12    6      5.16      0.00
   -4   12    6     20.98      0.00
   -3   12    6      6.96      0.00
   -2   12    6    -14.98      0.00
   -1   12    6     12.36      0.00
    0   12    6    -13.55      0.00
   -6   13    6      1.47      0.00
   -5   13    6     -9.77      0.00
   -4   13    6    -14.26      0.00
   -3   13    6     -5.76      0.00
   -2   13    6      1.61      0.00
   -1   13    6     -5.34      0.00
    0   13    6      0.45      0.00
   -7   14    6     24.03      0.00
   -6   14    6     11.13      0.00
   -5   14    6      4.39      0.00
   -4   14    6      4.34      0.00
   -3   14    6      0.72      0.00
   -2   14    6      2.97      0.00
   -1   14    6      1.82      0.00
    0   14    6      7.04      0.00
   -7   15    6      3.52      0.00
   -6   15    6     -1.60      0.00
   -5   15    6     18.21      0.00
   -4   15    6      9.80      0.00
   -3   15    6      7.10      0.00
   -2   15    6    -13.21      0.00
   -1   15    6      5.74      0.00
    0   15    6    -20.71      0.00
   -8   16    6     14.37      0.00
   -7   16    6     -5.54      0.00
   -6   16    6     -0.44      0.00
   -5   16    6    -13.10      0.00
   -4   16    6      2.11      0.00
   -3   16    6      0.53      0.00
   -2   16    6     -4.59      0.00
   -1   16    6      8.16      0.00
    0   16    6    -14.33      0.00
   -8   17    6     -2.18      0.00
   -7   17    6     12.22      0.00
   -6   17    6     10.07      0.00
   -5   17    6     12.19      0.00
   -4   17    6      3.53      0.00
   -3   17    6      2.47      0.00
   -2   17    6    -20.97      0.00
   -1   17    6     11.30      0.00
    0   17    6     -9.52      0.00
   -9   18    6     -3.30      0.00
   -8   18    6     14.27      0.00
   -7   18    6     -4.51      0.00
   -6   18    6      2.72      0.00
   -5   18    6      9.22      0.00
   -4   18    6     13.11      0.00
   -3   18    6      4.84      0.00
   -2   18    6    -11.74      0.00
   -1   18    6      5.86      0.00
    0   18    6     -8.70      0.00
   -9   19    6      2.95      0.00
   -8   19    6     -1.18      0.00
   -7   19    6      9.40      0.00
   -6   19    6      1.98      0.00
   -5   19    6     -0.95      0.00
   -4   19    6      4.47      0.00
   -3   19    6     -3.85      0.00
   -2   19    6     -3.24      0.00
   -1   19    6     -0.11      0.00
    0   19    6    -10.29      0.00
  -10   20    6     20.68      0.00
   -9   20    6     -2.82      0.00
   -8   20    6      1.24      0.00
   -7   20    6     14.67      0.00
   -6   20    6      3.54      0.00
   -5   20    6      3.06      0.00
   -4   20    6      2.24      0.00
   -3   20    6     -3.87      0.00
   -2   20    6      0.65      0.00
   -1   20    6     -0.21      0.00
    0   20    6     -6.81      0.00
  -10   21    6     -0.78      0.00
   -9   21    6      5.64      0.00
   -8   21    6     -5.74      0.00
   -7   21    6     -2.01      0.00
   -6   21    6     -5.61      0.00
   -5   21    6     -8.84      0.00
   -4   21    6      7.98      0.00
   -3   21    6     -7.27      0.00
   -2   21    6     -8.14      0.00
   -1   21    6     -4.10      0.00
    0   21    6      3.95      0.00
  -11   22    6      5.17      0.00
  -10   22    6      7.61      0.00
   -9   22    6      4.26      0.00
   -8   22    6     -1.45      0.00
   -7   22    6      1.48      0.00
   -6   22    6     -0.91      0.00
   -5   22    6     -2.16      0.00
   -4   22    6      7.09      0.00
   -3   22    6      2.61      0.00
   -2   22    6     -2.08      0.00
   -1   22    6     -6.21      0.00
    0   22    6     -4.09      0.00
  -11   23    6      0.28      0.00
  -10   23    6      3.57      0.00
   -9   23    6      1.90      0.00
   -8   23    6      4.01      0.00
   -7   23    6      1.29      0.00
   -6   23    6      1.34      0.00
   -5   23    6      1.89      0.00
   -4   23    6      8.90      0.00
   -3   23    6      2.85      0.00
   -2   23    6      3.10      0.00
   -1   23    6     -0.21      0.00
    0   23    6      4.74      0.00
  -12   24    6      6.61      0.00
  -11   24    6      2.75      0.00
  -10   24    6     -1.62      0.00
   -9   24    6      0.80      0.00
   -8   24    6     -1.68      0.00
   -7   24    6      2.12      0.00
   -6   24    6     -2.55      0.00
   -5   24    6    -13.85      0.00
   -4   24    6     -5.63      0.00
   -3   24    6     -0.63      0.00
   -2   24    6     -5.62      0.00
   -1   24    6     -4.83      0.00
    0   24    6      3.67      0.00
  -12   25    6      2.59      0.00
  -11   25    6     -5.00      0.00
  -10   25    6      8.62      0.00
   -9   25    6      1.72      0.00
   -8   25    6     -1.63      0.00
   -7   25    6      3.91      0.00
   -6   25    6     -1.59      0.00
   -5   25    6      7.39      0.00
   -4   25    6      0.55      0.00
   -3   25    6      7.43      0.00
   -2   25    6     -1.35      0.00
   -1   25    6     -1.18      0.00
    0   25    6      3.26      0.00
  -13   26    6     -1.43      0.00
  -12   26    6     -1.97      0.00
  -11   26    6     -0.02      0.00
  -10   26    6     -3.03      0.00
   -9   26    6      1.44      0.00
   -8   26    6     -2.34      0.00
   -7   26    6      2.82      0.00
   -6   26    6      2.28      0.00
   -5   26    6      3.66      0.00
   -4   26    6     -4.31      0.00
   -3   26    6     -1.52      0.00
   -2   26    6      6.28      0.00
   -1   26    6    -11.28      0.00
    0   26    6      7.18      0.00
  -13   27    6      3.38      0.00
  -12   27    6      5.43      0.00
  -11   27    6      1.88      0.00
  -10   27    6     -7.44      0.00
   -9   27    6      0.38      0.00
   -8   27    6     -4.66      0.00
   -7   27    6     -7.54      0.00
   -6   27    6     -3.35      0.00
   -5   27    6      4.09      0.00
   -4   27    6     -4.21      0.00
   -3   27    6      0.39      0.00
   -2   27    6     -0.07      0.00
   -1   27    6      1.32      0.00
    0   27    6     -4.85      0.00
  -14   28    6     -7.06      0.00
  -13   28    6      2.33      0.00
  -12   28    6     -5.23      0.00
  -11   28    6     -3.00      0.00
  -10   28    6      5.97      0.00
   -9   28    6     -8.74      0.00
   -8   28    6      6.50      0.00
   -7   28    6      0.66      0.00
   -6   28    6      0.35      0.00
   -5   28    6    -11.08      0.00
   -4   28    6      4.90      0.00
   -3   28    6     -6.82      0.00
   -2   28    6     -2.59      0.00
   -1   28    6     -6.63      0.00
    0   28    6      7.57      0.00
  -14   29    6     -4.75      0.00
  -13   29    6      5.20      0.00
  -12   29    6    -10.17      0.00
  -11   29    6      8.88      0.00
  -10   29    6     -6.36      0.00
   -9   29    6     -1.62      0.00
   -8   29    6      0.52      0.00
   -7   29    6      4.72      0.00
   -6   29    6     -0.55      0.00
   -5   29    6      3.10      0.00
   -4   29    6     -6.43      0.00
   -3   29    6     -8.72      0.00
   -2   29    6      4.08      0.00
   -1   29    6      7.15      0.00
    0   29    6      4.55      0.00
  -15   30    6     -0.77      0.00
  -14   30    6      6.26      0.00
  -13   30    6     -0.59      0.00
  -12   30    6      8.91      0.00
  -11   30    6      2.40      0.00
  -10   30    6    -14.63      0.00
   -9   30    6      7.00      0.00
   -8   30    6     12.91      0.00
   -7   30    6     -2.12      0.00
   -6   30    6     11.40      0.00
   -5   30    6      1.57      0.00
   -4   30    6     -7.04      0.00
   -3   30    6      3.20      0.00
   -2   30    6     -0.67      0.00
   -1   30    6      8.66      0.00
    0   30    6     -3.97      0.00
  -15   31    6     -2.32      0.00
  -14   31    6      3.67      0.00
  -13   31    6      2.58      0.00
  -12   31    6      2.79      0.00
  -11   31    6     -1.82      0.00
  -10   31    6      7.28      0.00
   -9   31    6      3.14      0.00
   -8   31    6      0.30      0.00
   -7   31    6      1.57      0.00
   -6   31    6      0.79      0.00
   -5   31    6      3.07      0.00
   -4   31    6      3.97      0.00
   -3   31    6      3.61      0.00
   -2   31    6     -1.02      0.00
   -1   31    6    -20.01      0.00
    0   31    6     -2.68      0.00
  -16   32    6      3.52      0.00
  -15   32    6      1.44      0.00
  -14   32    6      7.65      0.00
  -13   32    6      4.33      0.00
  -12   32    6     11.13      0.00
  -11   32    6     16.03      0.00
  -10   32    6      0.28      0.00
   -9   32    6     -7.00      0.00
   -8   32    6      8.69      0.00
   -7   32    6    -10.04      0.00
   -6   32    6      6.94      0.00
   -5   32    6      1.91      0.00
   -4   32    6     -0.44      0.00
   -3   32    6     -3.55      0.00
   -2   32    6      2.38      0.00
   -1   32    6      7.80      0.00
    0   32    6      7.56      0.00
  -16   33    6     -5.99      0.00
  -15   33    6      2.80      0.00
  -14   33    6      7.61      0.00
  -13   33    6      3.86      0.00
  -12   33    6      8.73      0.00
  -11   33    6     10.00      0.00
  -10   33    6      2.02      0.00
   -9   33    6      1.97      0.00
   -8   33    6      4.75      0.00
   -7   33    6     -1.26      0.00
   -6   33    6      8.78      0.00
   -5   33    6      1.79      0.00
   -4   33    6      0.14      0.00
   -3   33    6     -6.00      0.00
   -2   33    6     -0.81      0.00
   -1   33    6     13.19      0.00
    0   33    6      5.48      0.00
  -17   34    6      8.07      0.00
  -16   34    6      3.44      0.00
  -15   34    6      8.48      0.00
  -14   34    6     10.23      0.00
  -13   34    6     14.17      0.00
  -12   34    6      5.44      0.00
  -11   34    6    -11.78      0.00
  -10   34    6     -1.22      0.00
   -9   34    6     -0.83      0.00
   -8   34    6    -12.24      0.00
   -7   34    6      3.16      0.00
   -6   34    6     -3.23      0.00
   -5   34    6     -0.95      0.00
   -4   34    6      7.95      0.00
   -3   34    6      1.42      0.00
   -2   34    6     15.88      0.00
   -1   34    6      1.28      0.00
    0   34    6    -17.52      0.00
  -17   35    6     -1.80      0.00
  -16   35    6     12.13      0.00
  -15   35    6      0.23      0.00
  -14   35    6      2.31      0.00
  -13   35    6     10.40      0.00
  -12   35    6      4.17      0.00
  -11   35    6      6.79      0.00
  -10   35    6      4.82      0.00
   -9   35    6     -5.04      0.00
   -8   35    6      5.16      0.00
   -7   35    6      1.15      0.00
   -6   35    6     -6.13      0.00
   -5   35    6     -1.92      0.00
   -4   35    6     -3.70      0.00
   -3   35    6     14.43      0.00
   -2   35    6      3.47      0.00
   -1   35    6      2.43      0.00
    0   35    6      4.32      0.00
  -18   36    6      5.20      0.00
  -17   36    6      6.38      0.00
  -16   36    6     -0.33      0.00
  -15   36    6    -12.34      0.00
  -14   36    6      7.89      0.00
  -13   36    6     -5.27      0.00
  -12   36    6     -2.99      0.00
  -11   36    6      8.62      0.00
  -10   36    6     -5.06      0.00
   -9   36    6     -3.60      0.00
   -8   36    6      2.92      0.00
   -7   36    6     -1.85      0.00
   -6   36    6      9.41      0.00
   -5   36    6      1.76      0.00
   -4   36    6    -16.87      0.00
   -3   36    6      2.95      0.00
   -2   36    6     -2.78      0.00
   -1   36    6     -0.45      0.00
    0   36    6     -0.49      0.00
  -18   37    6      3.95      0.00
  -17   37    6      4.25      0.00
  -16   37    6      4.88      0.00
  -15   37    6     -2.57      0.00
  -14   37    6      2.80      0.00
  -13   37    6     -0.57      0.00
  -12   37    6      3.71      0.00
  -11   37    6      1.02      0.00
  -10   37    6     -5.51      0.00
   -9   37    6      1.88      0.00
   -8   37    6      0.30      0.00
   -7   37    6      5.35      0.00
   -6   37    6      0.32      0.00
   -5   37    6      1.45      0.00
   -4   37    6      0.30      0.00
   -3   37    6      1.93      0.00
   -2   37    6     -3.28      0.00
   -1   37    6     -2.41      0.00
    0   37    6     -0.95      0.00
  -19   38    6     -0.59      0.00
  -18   38    6     -1.05      0.00
  -17   38    6      4.70      0.00
  -16   38    6      0.95      0.00
  -15   38    6      2.39      0.00
  -14   38    6     -3.50      0.00
  -13   38    6      4.69      0.00
  -12   38    6     -0.38      0.00
  -11   38    6     13.70      0.00
  -10   38    6      1.95      0.00
   -9   38    6     -0.99      0.00
   -8   38    6     -1.50      0.00
   -7   38    6     -1.47      0.00
   -6   38    6      2.75      0.00
   -5   38    6     -0.30      0.00
   -4   38    6     -5.95      0.00
   -3   38    6      0.48      0.00
   -2   38    6      1.16      0.00
   -1   38    6     -6.48      0.00
    0   38    6      4.53      0.00
  -19   39    6      7.07      0.00
  -18   39    6     -2.25      0.00
  -17   39    6      5.42      0.00
  -16   39    6     -7.68      0.00
  -15   39    6     -3.90      0.00
  -14   39    6     -0.51      0.00
  -13   39    6     -4.91      0.00
  -12   39    6      6.06      0.00
  -11   39    6      0.25      0.00
  -10   39    6     -6.28      0.00
   -9   39    6     -1.23      0.00
   -8   39    6     -0.77      0.00
   -7   39    6     -2.34      0.00
   -6   39    6      1.26      0.00
   -5   39    6     -2.51      0.00
   -4   39    6     -3.05      0.00
   -3   39    6     -5.68      0.00
   -2   39    6      0.38      0.00
   -1   39    6     -5.39      0.00
  -20   40    6      4.63      0.00
  -19   40    6     -6.00      0.00
  -18   40    6      6.56      0.00
  -17   40    6      3.82      0.00
  -16   40    6      2.34      0.00
  -15   40    6      0.90      0.00
  -14   40    6      0.39      0.00
  -13   40    6      4.05      0.00
  -12   40    6      2.35      0.00
  -11   40    6      0.80      0.00
  -10   40    6     -7.98      0.00
   -9   40    6      5.99      0.00
   -8   40    6     -5.80      0.00
   -7   40    6     -1.04      0.00
   -6   40    6     -5.62      0.00
   -5   40    6     -6.81      0.00
   -4   40    6     13.44      0.00
  -20   41    6      2.08      0.00
  -19   41    6     -8.37      0.00
  -18   41    6      4.34      0.00
  -17   41    6      0.10      0.00
  -16   41    6     -6.81      0.00
  -15   41    6     -2.85      0.00
  -14   41    6      2.85      0.00
  -13   41    6      1.43      0.00
  -12   41    6     -9.40      0.00
  -11   41    6      4.50      0.00
  -10   41    6      7.25      0.00
   -9   41    6     -3.73      0.00
   -8   41    6      6.84      0.00
   -7   41    6     -4.44      0.00
   -6   41    6      1.72      0.00
  -21   42    6     -2.15      0.00
  -20   42    6     -1.45      0.00
  -19   42    6     -4.55      0.00
  -18   42    6      4.71      0.00
  -17   42    6     -0.24      0.00
  -16   42    6     -0.10      0.00
  -15   42    6     -7.11      0.00
  -14   42    6      0.66      0.00
  -13   42    6      3.95      0.00
  -12   42    6     -1.77      0.00
  -11   42    6      2.80      0.00
  -10   42    6     -2.83      0.00
   -9   42    6      1.60      0.00
  -21   43    6      0.76      0.00
  -20   43    6      7.24      0.00
  -19   43    6      2.69      0.00
  -18   43    6      7.25      0.00
  -17   43    6      2.27      0.00
  -16   43    6     -6.95      0.00
  -15   43    6      4.80      0.00
  -14   43    6      8.04      0.00
  -13   43    6     -0.96      0.00
  -12   43    6      4.39      0.00
  -22   44    6     -2.77      0.00
  -21   44    6     -0.40      0.00
  -20   44    6     -5.61      0.00
  -19   44    6      0.15      0.00
  -18   44    6      2.47      0.00
  -17   44    6      1.36      0.00
  -16   44    6      4.30      0.00
    0    0    7     48.29      0.00
    0    1    7      8.51      0.00
   -1    2    7      4.45      0.00
    0    2    7      9.75      0.00
   -1    3    7      5.27      0.00
    0    3    7     17.14      0.00
   -2    4    7     -7.83      0.00
   -1    4    7     17.45      0.00
    0    4    7      1.51      0.00
   -2    5    7      1.74      0.00
   -1    5    7     12.69      0.00
    0    5    7    -26.61      0.00
   -3    6    7    -19.53      0.00
   -2    6    7     -8.85      0.00
   -1    6    7      1.80      0.00
    0    6    7     -8.42      0.00
   -3    7    7      3.01      0.00
   -2    7    7    -35.70      0.00
   -1    7    7      0.28      0.00
    0    7    7    -38.36      0.00
   -4    8    7    -25.36      0.00
   -3    8    7     26.36      0.00
   -2    8    7    -10.96      0.00
   -1    8    7     10.04      0.00
    0    8    7    -21.96      0.00
   -4    9    7     -9.68      0.00
   -3    9    7     11.60      0.00
   -2    9    7    -20.17      0.00
   -1    9    7     12.23      0.00
    0    9    7    -25.17      0.00
   -5   10    7     15.79      0.00
   -4   10    7    -22.77      0.00
   -3   10    7     -8.50      0.00
   -2   10    7     -5.63      0.00
   -1   10    7     -6.93      0.00
    0   10    7      1.55      0.00
   -5   11    7     -1.07      0.00
   -4   11    7      9.80      0.00
   -3   11    7     -6.34      0.00
   -2   11    7     -9.01      0.00
   -1   11    7     -9.93      0.00
    0   11    7    -20.35      0.00
   -6   12    7    -16.72      0.00
   -5   12    7      2.66      0.00
   -4   12    7      4.51      0.00
   -3   12    7      7.12      0.00
   -2   12    7      4.84      0.00
   -1   12    7     10.62      0.00
    0   12    7    -15.60      0.00
   -6   13    7     18.65      0.00
   -5   13    7     -3.09      0.00
   -4   13    7      1.40      0.00
   -3   13    7    -16.69      0.00
   -2   13    7      8.71      0.00
   -1   13    7    -18.02      0.00
    0   13    7     11.25      0.00
   -7   14    7     -8.63      0.00
   -6   14    7    -15.23      0.00
   -5   14    7      6.44      0.00
   -4   14    7     -1.60      0.00
   -3   14    7      4.39      0.00
   -2   14    7    -10.77      0.00
   -1   14    7    -10.44      0.00
    0   14    7      1.52      0.00
   -7   15    7      6.10      0.00
   -6   15    7      1.18      0.00
   -5   15    7      9.77      0.00
   -4   15    7      3.32      0.00
   -3   15    7     -3.92      0.00
   -2   15    7      2.80      0.00
   -1   15    7    -18.84      0.00
    0   15    7      0.45      0.00
   -8   16    7     -1.04      0.00
   -7   16    7     15.46      0.00
   -6   16    7    -11.94      0.00
   -5   16    7     -4.30      0.00
   -4   16    7     11.99      0.00
   -3   16    7     -2.43      0.00
   -2   16    7      1.49      0.00
   -1   16    7     -3.68      0.00
    0   16    7     -4.84      0.00
   -8   17    7     -4.46      0.00
   -7   17    7      2.69      0.00
   -6   17    7      0.78      0.00
   -5   17    7     -0.74      0.00
   -4   17    7      4.45      0.00
   -3   17    7     -4.37      0.00
   -2   17    7      2.28      0.00
   -1   17    7      2.97      0.00
    0   17    7      0.98      0.00
   -9   18    7      5.11      0.00
   -8   18    7      1.10      0.00
   -7   18    7      3.40      0.00
   -6   18    7      3.02      0.00
   -5   18    7      7.04      0.00
   -4   18    7      4.84      0.00
   -3   18    7     -5.96      0.00
   -2   18    7      6.14      0.00
   -1   18    7     -7.98      0.00
    0   18    7      7.91      0.00
   -9   19    7      6.91      0.00
   -8   19    7      2.05      0.00
   -7   19    7      7.50      0.00
   -6   19    7     -2.88      0.00
   -5   19    7     -1.11      0.00
   -4   19    7      0.85      0.00
   -3   19    7      1.10      0.00
   -2   19    7     -2.33      0.00
   -1   19    7     -4.59      0.00
    0   19    7     -4.40      0.00
  -10   20    7      1.70      0.00
   -9   20    7     -6.00      0.00
   -8   20    7     -3.58      0.00
   -7   20    7      9.72      0.00
   -6   20    7      1.77      0.00
   -5   20    7     -0.36      0.00
   -4   20    7     -3.35      0.00
   -3   20    7     -4.29      0.00
   -2   20    7      4.51      0.00
   -1   20    7      0.01      0.00
    0   20    7      0.68      0.00
  -10   21    7      2.88      0.00
   -9   21    7     12.91      0.00
   -8   21    7      0.15      0.00
   -7   21    7      1.22      0.00
   -6   21    7      2.80      0.00
   -5   21    7      5.37      0.00
   -4   21    7     -1.37      0.00
   -3   21    7      1.44      0.00
   -2   21    7     -6.22      0.00
   -1   21    7      0.27      0.00
    0   21    7     -2.95      0.00
  -11   22    7     -4.93      0.00
  -10   22    7      1.70      0.00
   -9   22    7      7.05      0.00
   -8   22    7     -0.19      0.00
   -7   22    7     -2.62      0.00
   -6   22    7     -2.03      0.00
   -5   22    7     -9.69      0.00
   -4   22    7     -5.02      0.00
   -3   22    7      2.87      0.00
   -2   22    7     -0.52      0.00
   -1   22    7      1.05      0.00
    0   22    7      0.03      0.00
  -11   23    7     -7.01      0.00
  -10   23    7      2.58      0.00
   -9   23    7      0.75      0.00
   -8   23    7      0.79      0.00
   -7   23    7     -0.08      0.00
   -6   23    7      0.31      0.00
   -5   23    7      2.38      0.00
   -4   23    7     -0.80      0.00
   -3   23    7     -1.89      0.00
   -2   23    7      2.72      0.00
   -1   23    7     -0.09      0.00
    0   23    7      7.27      0.00
  -12   24    7     -1.00      0.00
  -11   24    7      0.32      0.00
  -10   24    7      3.42      0.00
   -9   24    7      3.24      0.00
   -8   24    7      1.50      0.00
   -7   24    7      9.73      0.00
   -6   24    7      0.48      0.00
   -5   24    7      0.21      0.00
   -4   24    7      0.89      0.00
   -3   24    7     -4.04      0.00
   -2   24    7      0.25      0.00
   -1   24    7      4.11      0.00
    0   24    7     -8.76      0.00
  -12   25    7      2.16      0.00
  -11   25    7     -3.05      0.00
  -10   25    7      0.00      0.00
   -9   25    7      0.20      0.00
   -8   25    7     -3.18      0.00
   -7   25    7     -3.24      0.00
   -6   25    7     -0.60      0.00
   -5   25    7     -6.06      0.00
   -4   25    7      5.84      0.00
   -3   25    7     -4.74      0.00
   -2   25    7     -4.31      0.00
   -1   25    7     -2.46      0.00
    0   25    7     -0.41      0.00
  -13   26    7      2.00      0.00
  -12   26    7     -8.85      0.00
  -11   26    7     -1.94      0.00
  -10   26    7     -6.51      0.00
   -9   26    7     -1.40      0.00
   -8   26    7      8.89      0.00
   -7   26    7     -4.43      0.00
   -6   26    7      5.50      0.00
   -5   26    7     11.56      0.00
   -4   26    7     -1.70      0.00
   -3   26    7      0.68      0.00
   -2   26    7      1.20      0.00
   -1   26    7     -1.54      0.00
    0   26    7     -1.82      0.00
  -13   27    7      2.55      0.00
  -12   27    7     -3.81      0.00
  -11   27    7     -4.23      0.00
  -10   27    7     -1.85      0.00
   -9   27    7    -11.05      0.00
   -8   27    7      3.06      0.00
   -7   27    7    -12.72      0.00
   -6   27    7      0.27      0.00
   -5   27    7      6.11      0.00
   -4   27    7     -3.41      0.00
   -3   27    7    -11.34      0.00
   -2   27    7      1.87      0.00
   -1   27    7      5.43      0.00
    0   27    7      4.47      0.00
  -14   28    7     -3.35      0.00
  -13   28    7      4.06      0.00
  -12   28    7     -1.46      0.00
  -11   28    7      3.12      0.00
  -10   28    7     -0.59      0.00
   -9   28    7     -3.15      0.00
   -8   28    7      1.61      0.00
   -7   28    7      4.95      0.00
   -6   28    7      6.27      0.00
   -5   28    7     -0.13      0.00
   -4   28    7     -2.74      0.00
   -3   28    7      4.66      0.00
   -2   28    7     -5.10      0.00
   -1   28    7     -8.40      0.00
    0   28    7     -7.31      0.00
  -14   29    7      0.42      0.00
  -13   29    7      4.20      0.00
  -12   29    7     -1.30      0.00
  -11   29    7      4.89      0.00
  -10   29    7      4.85      0.00
   -9   29    7     -2.63      0.00
   -8   29    7      4.07      0.00
   -7   29    7     -2.26      0.00
   -6   29    7     -1.06      0.00
   -5   29    7     -1.65      0.00
   -4   29    7     -6.88      0.00
   -3   29    7      5.18      0.00
   -2   29    7      1.98      0.00
   -1   29    7      1.13      0.00
    0   29    7     -4.73      0.00
  -15   30    7     -5.98      0.00
  -14   30    7     -0.13      0.00
  -13   30    7     -4.06      0.00
  -12   30    7      1.78      0.00
  -11   30    7     -1.63      0.00
  -10   30    7      2.16      0.00
   -9   30    7     11.15      0.00
   -8   30    7     -9.76      0.00
   -7   30    7      0.76      0.00
   -6   30    7     -8.06      0.00
   -5   30    7      4.83      0.00
   -4   30    7     -6.64      0.00
   -3   30    7     -0.08      0.00
   -2   30    7     -6.21      0.00
   -1   30    7     -8.15      0.00
    0   30    7     -3.23      0.00
  -15   31    7      3.77      0.00
  -14   31    7      2.34      0.00
  -13   31    7     -0.74      0.00
  -12   31    7      5.21      0.00
  -11   31    7      0.69      0.00
  -10   31    7      3.79      0.00
   -9   31    7     -0.27      0.00
   -8   31    7      6.40      0.00
   -7   31    7     -7.76      0.00
   -6   31    7     -0.22      0.00
   -5   31    7     11.01      0.00
   -4   31    7      4.88      0.00
   -3   31    7     -0.45      0.00
   -2   31    7     -1.76      0.00
   -1   31    7     -8.84      0.00
    0   31    7      3.50      0.00
  -16   32    7     -6.19      0.00
  -15   32    7      1.37      0.00
  -14   32    7     -2.71      0.00
  -13   32    7     -0.75      0.00
  -12   32    7     -1.13      0.00
  -11   32    7      5.53      0.00
  -10   32    7      4.32      0.00
   -9   32    7      4.32      0.00
   -8   32    7      4.99      0.00
   -7   32    7      3.13      0.00
   -6   32    7      2.81      0.00
   -5   32    7      8.12      0.00
   -4   32    7     -3.27      0.00
   -3   32    7     -4.82      0.00
   -2   32    7      1.42      0.00
   -1   32    7     13.60      0.00
    0   32    7      3.33      0.00
  -16   33    7     -0.48      0.00
  -15   33    7      0.31      0.00
  -14   33    7     -3.68      0.00
  -13   33    7      5.81      0.00
  -12   33    7     -7.24      0.00
  -11   33    7      7.30      0.00
  -10   33    7     -2.52      0.00
   -9   33    7      0.59      0.00
   -8   33    7     -0.42      0.00
   -7   33    7     -2.19      0.00
   -6   33    7     -1.05      0.00
   -5   33    7      2.60      0.00
   -4   33    7      5.90      0.00
   -3   33    7     -0.77      0.00
   -2   33    7      0.72      0.00
   -1   33    7     -1.50      0.00
    0   33    7      1.05      0.00
  -17   34    7      1.18      0.00
  -16   34    7     -7.20      0.00
  -15   34    7     -0.05      0.00
  -14   34    7      1.65      0.00
  -13   34    7      6.93      0.00
  -12   34    7     -5.17      0.00
  -11   34    7      4.68      0.00
  -10   34    7      0.98      0.00
   -9   34    7     -5.34      0.00
   -8   34    7      0.21      0.00
   -7   34    7     -6.75      0.00
   -6   34    7     -1.86      0.00
   -5   34    7     -2.05      0.00
   -4   34    7     -2.42      0.00
   -3   34    7     -0.31      0.00
   -2   34    7      6.93      0.00
   -1   34    7     -1.62      0.00
    0   34    7      7.30      0.00
  -17   35    7      4.74      0.00
  -16   35    7      5.02      0.00
  -15   35    7      9.78      0.00
  -14   35    7     -2.03      0.00
  -13   35    7     -1.17      0.00
  -12   35    7     -2.91      0.00
  -11   35    7     -0.22      0.00
  -10   35    7     -2.70      0.00
   -9   35    7      0.11      0.00
   -8   35    7     -8.47      0.00
   -7   35    7     10.25      0.00
   -6   35    7     -1.77      0.00
   -5   35    7     -3.44      0.00
   -4   35    7     -2.27      0.00
   -3   35    7      1.38      0.00
   -2   35    7      0.97      0.00
   -1   35    7     -8.01      0.00
    0   35    7     13.36      0.00
  -18   36    7      3.29      0.00
  -17   36    7     -3.69      0.00
  -16   36    7     -2.31      0.00
  -15   36    7      0.63      0.00
  -14   36    7      1.58      0.00
  -13   36    7      0.74      0.00
  -12   36    7      6.69      0.00
  -11   36    7      1.21      0.00
  -10   36    7      5.88      0.00
   -9   36    7     -0.17      0.00
   -8   36    7      0.33      0.00
   -7   36    7      0.28      0.00
   -6   36    7     -0.22      0.00
   -5   36    7      1.40      0.00
   -4   36    7      3.59      0.00
   -3   36    7      0.81      0.00
   -2   36    7     -3.44      0.00
   -1   36    7     -5.10      0.00
    0   36    7      2.93      0.00
  -18   37    7      7.81      0.00
  -17   37    7      8.67      0.00
  -16   37    7     -0.89      0.00
  -15   37    7      4.19      0.00
  -14   37    7      2.61      0.00
  -13   37    7      3.65      0.00
  -12   37    7     -4.00      0.00
  -11   37    7     -0.82      0.00
  -10   37    7      1.71      0.00
   -9   37    7      1.36      0.00
   -8   37    7     -1.70      0.00
   -7   37    7     -1.57      0.00
   -6   37    7      0.14      0.00
   -5   37    7      0.73      0.00
   -4   37    7      2.26      0.00
   -3   37    7      1.29      0.00
   -2   37    7     -3.66      0.00
   -1   37    7     -0.35      0.00
    0   37    7      7.06      0.00
  -19   38    7     -1.03      0.00
  -18   38    7      0.50      0.00
  -17   38    7      4.57      0.00
  -16   38    7     -8.03      0.00
  -15   38    7      1.14      0.00
  -14   38    7     -6.88      0.00
  -13   38    7     -1.05      0.00
  -12   38    7      5.36      0.00
  -11   38    7     -3.70      0.00
  -10   38    7      8.11      0.00
   -9   38    7     -0.39      0.00
   -8   38    7      1.01      0.00
   -7   38    7     -4.20      0.00
   -6   38    7     -1.54      0.00
   -5   38    7     -1.42      0.00
   -4   38    7     -0.82      0.00
   -3   38    7     -0.96      0.00
   -2   38    7      5.88      0.00
   -1   38    7     -6.58      0.00
  -19   39    7      2.62      0.00
  -18   39    7      3.15      0.00
  -17   39    7     -2.01      0.00
  -16   39    7      0.49      0.00
  -15   39    7      2.08      0.00
  -14   39    7     -3.07      0.00
  -13   39    7     -4.19      0.00
  -12   39    7     -5.17      0.00
  -11   39    7     -1.41      0.00
  -10   39    7     -0.51      0.00
   -9   39    7     -0.47      0.00
   -8   39    7      5.51      0.00
   -7   39    7     -3.07      0.00
   -6   39    7      2.85      0.00
   -5   39    7     -0.20      0.00
   -4   39    7      3.64      0.00
   -3   39    7     -4.84      0.00
  -20   40    7      3.29      0.00
  -19   40    7      6.63      0.00
  -18   40    7     -3.99      0.00
  -17   40    7      2.43      0.00
  -16   40    7     -0.28      0.00
  -15   40    7     -2.21      0.00
  -14   40    7     -1.74      0.00
  -13   40    7     -2.12      0.00
  -12   40    7      2.46      0.00
  -11   40    7      2.80      0.00
  -10   40    7      2.99      0.00
   -9   40    7    -10.41      0.00
   -8   40    7      2.49      0.00
   -7   40    7     -3.82      0.00
   -6   40    7      8.11      0.00
   -5   40    7      1.14      0.00
  -20   41    7      3.65      0.00
  -19   41    7     -8.35      0.00
  -18   41    7     -2.00      0.00
  -17   41    7     -0.38      0.00
  -16   41    7      1.71      0.00
  -15   41    7     -2.12      0.00
  -14   41    7      2.02      0.00
  -13   41    7     -2.38      0.00
  -12   41    7      1.75      0.00
  -11   41    7      0.93      0.00
  -10   41    7     -1.05      0.00
   -9   41    7     -6.87      0.00
   -8   41    7      3.28      0.00
  -21   42    7      7.03      0.00
  -20   42    7      1.66      0.00
  -19   42    7     -0.46      0.00
  -18   42    7     -1.15      0.00
  -17   42    7      4.67      0.00
  -16   42    7      1.70      0.00
  -15   42    7      5.33      0.00
  -14   42    7      4.67      0.00
  -13   42    7      0.05      0.00
  -12   42    7      5.26      0.00
  -11   42    7     -1.07      0.00
  -21   43    7      0.48      0.00
  -20   43    7      4.58      0.00
  -19   43    7     -0.06      0.00
  -18   43    7      1.01      0.00
  -17   43    7     -4.20      0.00
  -16   43    7      2.46      0.00
  -15   43    7     -4.93      0.00
    0    0    8    105.26      0.00
    0    1    8     -0.65      0.00
   -1    2    8     31.81      0.00
    0    2    8     35.91      0.00
   -1    3    8      9.41      0.00
    0    3    8     21.42      0.00
   -2    4    8     23.15      0.00
   -1    4    8     20.25      0.00
    0    4    8     -1.55      0.00
   -2    5    8      8.24      0.00
   -1    5    8      3.10      0.00
    0    5    8      8.24      0.00
   -3    6    8     -0.86      0.00
   -2    6    8     15.22      0.00
   -1    6    8     -2.32      0.00
    0    6    8     -1.98      0.00
   -3    7    8     -1.16      0.00
   -2    7    8     -1.02      0.00
   -1    7    8     -9.69      0.00
    0    7    8     24.30      0.00
   -4    8    8    -11.38      0.00
   -3    8    8      8.88      0.00
   -2    8    8     -6.78      0.00
   -1    8    8    -13.32      0.00
    0    8    8    -27.47      0.00
   -4    9    8     -3.62      0.00
   -3    9    8     -3.29      0.00
   -2    9    8     16.91      0.00
   -1    9    8     -5.55      0.00
    0    9    8     11.75      0.00
   -5   10    8      8.50      0.00
   -4   10    8      2.08      0.00
   -3   10    8    -17.93      0.00
   -2   10    8     -2.39      0.00
   -1   10    8    -11.25      0.00
    0   10    8     -5.12      0.00
   -5   11    8      3.99      0.00
   -4   11    8      5.49      0.00
   -3   11    8      4.85      0.00
   -2   11    8      1.34      0.00
   -1   11    8      0.35      0.00
    0   11    8     -2.11      0.00
   -6   12    8      4.01      0.00
   -5   12    8     -4.25      0.00
   -4   12    8      8.20      0.00
   -3   12    8     -6.89      0.00
   -2   12    8     -8.58      0.00
   -1   12    8     -3.38      0.00
    0   12    8    -12.68      0.00
   -6   13    8    -12.37      0.00
   -5   13    8     -2.10      0.00
   -4   13    8    -12.14      0.00
   -3   13    8     -2.29      0.00
   -2   13    8      0.79      0.00
   -1   13    8    -10.39      0.00
    0   13    8      3.30      0.00
   -7   14    8     -3.07      0.00
   -6   14    8     -2.48      0.00
   -5   14    8     -0.13      0.00
   -4   14    8      4.11      0.00
   -3   14    8     -3.05      0.00
   -2   14    8     -8.21      0.00
   -1   14    8     -3.83      0.00
    0   14    8     -1.78      0.00
   -7   15    8     -2.40      0.00
   -6   15    8      1.31      0.00
   -5   15    8     -0.45      0.00
   -4   15    8     -7.61      0.00
   -3   15    8     -5.67      0.00
   -2   15    8     -6.35      0.00
   -1   15    8     -8.04      0.00
    0   15    8    -10.59      0.00
   -8   16    8      5.32      0.00
   -7   16    8      0.76      0.00
   -6   16    8      8.31      0.00
   -5   16    8     -4.31      0.00
   -4   16    8    -18.66      0.00
   -3   16    8     -5.79      0.00
   -2   16    8      3.35      0.00
   -1   16    8     -0.25      0.00
    0   16    8     -7.50      0.00
   -8   17    8     -0.47      0.00
   -7   17    8      4.62      0.00
   -6   17    8      7.79      0.00
   -5   17    8     -3.40      0.00
   -4   17    8      2.24      0.00
   -3   17    8    -11.03      0.00
   -2   17    8     -6.09      0.00
   -1   17    8     -1.11      0.00
    0   17    8     -5.67      0.00
   -9   18    8      7.56      0.00
   -8   18    8     -8.31      0.00
   -7   18    8      0.15      0.00
   -6   18    8      2.57      0.00
   -5   18    8     -3.69      0.00
   -4   18    8     12.08      0.00
   -3   18    8     -1.36      0.00
   -2   18    8      0.43      0.00
   -1   18    8      1.75      0.00
    0   18    8      8.76      0.00
   -9   19    8     10.58      0.00
   -8   19    8      2.87      0.00
   -7   19    8      4.66      0.00
   -6   19    8      5.63      0.00
   -5   19    8      2.43      0.00
   -4   19    8      4.49      0.00
   -3   19    8     -7.71      0.00
   -2   19    8     -2.88      0.00
   -1   19    8      1.36      0.00
    0   19    8     -0.82      0.00
  -10   20    8     -9.16      0.00
   -9   20    8     -0.98      0.00
   -8   20    8      0.48      0.00
   -7   20    8      3.79      0.00
   -6   20    8     -5.63      0.00
   -5   20    8      4.81      0.00
   -4   20    8     -3.96      0.00
   -3   20    8      3.29      0.00
   -2   20    8      0.48      0.00
   -1   20    8      2.69      0.00
    0   20    8      4.64      0.00
  -10   21    8      3.21      0.00
   -9   21    8      4.68      0.00
   -8   21    8     -4.54      0.00
   -7   21    8      5.26      0.00
   -6   21    8      3.44      0.00
   -5   21    8     -3.83      0.00
   -4   21    8     11.22      0.00
   -3   21    8     -3.62      0.00
   -2   21    8      3.58      0.00
   -1   21    8     -4.84      0.00
    0   21    8     -2.37      0.00
  -11   22    8      0.54      0.00
  -10   22    8      3.81      0.00
   -9   22    8      8.40      0.00
   -8   22    8     11.50      0.00
   -7   22    8      6.60      0.00
   -6   22    8     -3.18      0.00
   -5   22    8     -2.23      0.00
   -4   22    8      0.72      0.00
   -3   22    8     -7.56      0.00
   -2   22    8     -0.61      0.00
   -1   22    8      1.80      0.00
    0   22    8      3.10      0.00
  -11   23    8     -2.59      0.00
  -10   23    8     -1.93      0.00
   -9   23    8     -9.07      0.00
   -8   23    8      4.34      0.00
   -7   23    8     -2.58      0.00
   -6   23    8      3.50      0.00
   -5   23    8      0.60      0.00
   -4   23    8     -0.84      0.00
   -3   23    8      1.54      0.00
   -2   23    8     -3.10      0.00
   -1   23    8     -1.21      0.00
    0   23    8     -2.88      0.00
  -12   24    8     -9.35      0.00
  -11   24    8     -9.29      0.00
  -10   24    8      0.45      0.00
   -9   24    8     -8.64      0.00
   -8   24    8     -2.97      0.00
   -7   24    8     -0.66      0.00
   -6   24    8    -11.31      0.00
   -5   24    8      4.28      0.00
   -4   24    8     -1.04      0.00
   -3   24    8      5.03      0.00
   -2   24    8      2.15      0.00
   -1   24    8     -3.05      0.00
    0   24    8      1.26      0.00
  -12   25    8     -4.31      0.00
  -11   25    8    -11.21      0.00
  -10   25    8      0.62      0.00
   -9   25    8      1.86      0.00
   -8   25    8      3.71      0.00
   -7   25    8     -2.12      0.00
   -6   25    8     -2.40      0.00
   -5   25    8      2.36      0.00
   -4   25    8     -3.74      0.00
   -3   25    8      2.00      0.00
   -2   25    8     -3.41      0.00
   -1   25    8     -6.49      0.00
    0   25    8     -1.75      0.00
  -13   26    8     -6.90      0.00
  -12   26    8      0.12      0.00
  -11   26    8     -5.41      0.00
  -10   26    8     -1.94      0.00
   -9   26    8     -1.15      0.00
   -8   26    8     -2.93      0.00
   -7   26    8      1.53      0.00
   -6   26    8     -2.38      0.00
   -5   26    8      5.32      0.00
   -4   26    8     -0.33      0.00
   -3   26    8      2.63      0.00
   -2   26    8     -0.81      0.00
   -1   26    8     -2.11      0.00
    0   26    8      1.31      0.00
  -13   27    8     -0.54      0.00
  -12   27    8     -3.88      0.00
  -11   27    8      1.79      0.00
  -10   27    8     -2.78      0.00
   -9   27    8      0.13      0.00
   -8   27    8      2.31      0.00
   -7   27    8     -3.05      0.00
   -6   27    8      0.37      0.00
   -5   27    8      0.27      0.00
   -4   27    8      4.94      0.00
   -3   27    8     -9.92      0.00
   -2   27    8    -11.84      0.00
   -1   27    8     -0.16      0.00
    0   27    8     13.05      0.00
  -14   28    8     -3.67      0.00
  -13   28    8      1.98      0.00
  -12   28    8     -6.01      0.00
  -11   28    8      0.92      0.00
  -10   28    8     -2.65      0.00
   -9   28    8     -3.77      0.00
   -8   28    8      3.50      0.00
   -7   28    8      2.31      0.00
   -6   28    8      5.65      0.00
   -5   28    8      5.33      0.00
   -4   28    8     -0.10      0.00
   -3   28    8     -1.23      0.00
   -2   28    8     -3.35      0.00
   -1   28    8      1.43      0.00
    0   28    8     -1.09      0.00
  -14   29    8      4.88      0.00
  -13   29    8      1.47      0.00
  -12   29    8     -6.14      0.00
  -11   29    8      2.18      0.00
  -10   29    8      1.84      0.00
   -9   29    8      3.81      0.00
   -8   29    8     -1.01      0.00
   -7   29    8      4.98      0.00
   -6   29    8     -2.63      0.00
   -5   29    8     -1.26      0.00
   -4   29    8     -2.59      0.00
   -3   29    8      1.49      0.00
   -2   29    8      1.66      0.00
   -1   29    8      0.70      0.00
    0   29    8      0.20      0.00
  -15   30    8     -4.89      0.00
  -14   30    8      0.10      0.00
  -13   30    8     -5.82      0.00
  -12   30    8      4.37      0.00
  -11   30    8     -7.55      0.00
  -10   30    8      9.46      0.00
   -9   30    8      7.39      0.00
   -8   30    8    -12.14      0.00
   -7   30    8      3.38      0.00
   -6   30    8      4.97      0.00
   -5   30    8      3.13      0.00
   -4   30    8      0.02      0.00
   -3   30    8      1.08      0.00
   -2   30    8     -3.33      0.00
   -1   30    8     -0.13      0.00
    0   30    8     -3.93      0.00
  -15   31    8     -8.65      0.00
  -14   31    8     -1.24      0.00
  -13   31    8     -4.27      0.00
  -12   31    8      7.39      0.00
  -11   31    8     -1.48      0.00
  -10   31    8     -9.72      0.00
   -9   31    8     -1.04      0.00
   -8   31    8      0.61      0.00
   -7   31    8     -0.40      0.00
   -6   31    8     -0.87      0.00
   -5   31    8     -2.60      0.00
   -4   31    8      4.20      0.00
   -3   31    8     -4.06      0.00
   -2   31    8     -0.77      0.00
   -1   31    8      1.36      0.00
    0   31    8     -7.00      0.00
  -16   32    8      3.37      0.00
  -15   32    8     -1.33      0.00
  -14   32    8     -1.32      0.00
  -13   32    8     -1.11      0.00
  -12   32    8     -0.52      0.00
  -11   32    8     -6.98      0.00
  -10   32    8     -1.84      0.00
   -9   32    8     -1.25      0.00
   -8   32    8      1.60      0.00
   -7   32    8     -4.99      0.00
   -6   32    8      0.69      0.00
   -5   32    8     -0.78      0.00
   -4   32    8     -8.45      0.00
   -3   32    8      2.60      0.00
   -2   32    8     -3.19      0.00
   -1   32    8      4.45      0.00
    0   32    8    -13.50      0.00
  -16   33    8      1.47      0.00
  -15   33    8     -5.40      0.00
  -14   33    8      0.85      0.00
  -13   33    8      2.36      0.00
  -12   33    8      2.57      0.00
  -11   33    8      0.17      0.00
  -10   33    8      1.03      0.00
   -9   33    8      2.08      0.00
   -8   33    8     -2.24      0.00
   -7   33    8      0.83      0.00
   -6   33    8     -1.72      0.00
   -5   33    8      3.09      0.00
   -4   33    8     -0.33      0.00
   -3   33    8     -0.71      0.00
   -2   33    8     -1.38      0.00
   -1   33    8      1.56      0.00
    0   33    8     -5.03      0.00
  -17   34    8      6.94      0.00
  -16   34    8      3.96      0.00
  -15   34    8      0.09      0.00
  -14   34    8     -3.22      0.00
  -13   34    8     -0.69      0.00
  -12   34    8     16.96      0.00
  -11   34    8      1.68      0.00
  -10   34    8     -8.12      0.00
   -9   34    8      2.29      0.00
   -8   34    8     -0.61      0.00
   -7   34    8      4.80      0.00
   -6   34    8      8.47      0.00
   -5   34    8      2.76      0.00
   -4   34    8     11.70      0.00
   -3   34    8     -6.62      0.00
   -2   34    8      4.79      0.00
   -1   34    8     -1.51      0.00
    0   34    8     -8.49      0.00
  -17   35    8     -5.53      0.00
  -16   35    8      3.32      0.00
  -15   35    8     -1.12      0.00
  -14   35    8     -8.66      0.00
  -13   35    8     -0.41      0.00
  -12   35    8     14.50      0.00
  -11   35    8     -0.57      0.00
  -10   35    8      8.06      0.00
   -9   35    8      2.13      0.00
   -8   35    8     -5.06      0.00
   -7   35    8     -0.25      0.00
   -6   35    8     -0.82      0.00
   -5   35    8     -4.81      0.00
   -4   35    8     -1.55      0.00
   -3   35    8     -2.00      0.00
   -2   35    8      2.52      0.00
   -1   35    8     -3.70      0.00
    0   35    8     -3.72      0.00
  -18   36    8      4.77      0.00
  -17   36    8      1.32      0.00
  -16   36    8      2.53      0.00
  -15   36    8      0.39      0.00
  -14   36    8      3.85      0.00
  -13   36    8     -0.59      0.00
  -12   36    8     -0.54      0.00
  -11   36    8     -5.45      0.00
  -10   36    8      2.36      0.00
   -9   36    8      7.08      0.00
   -8   36    8      1.04      0.00
   -7   36    8      0.41      0.00
   -6   36    8      0.74      0.00
   -5   36    8      2.69      0.00
   -4   36    8     -5.78      0.00
   -3   36    8      3.92      0.00
   -2   36    8     -1.28      0.00
   -1   36    8      9.21      0.00
    0   36    8     -3.33      0.00
  -18   37    8      5.16      0.00
  -17   37    8    -12.40      0.00
  -16   37    8      8.57      0.00
  -15   37    8     -1.27      0.00
  -14   37    8     -3.02      0.00
  -13   37    8     -6.43      0.00
  -12   37    8     -7.92      0.00
  -11   37    8     -4.40      0.00
  -10   37    8     -4.34      0.00
   -9   37    8     -1.78      0.00
   -8   37    8      1.65      0.00
   -7   37    8     -1.26      0.00
   -6   37    8     -1.41      0.00
   -5   37    8     -3.99      0.00
   -4   37    8      1.58      0.00
   -3   37    8      4.19      0.00
   -2   37    8     -1.28      0.00
   -1   37    8      6.79      0.00
  -19   38    8      3.45      0.00
  -18   38    8     -0.10      0.00
  -17   38    8     -0.42      0.00
  -16   38    8     -0.17      0.00
  -15   38    8      2.66      0.00
  -14   38    8      6.16      0.00
  -13   38    8     -8.04      0.00
  -12   38    8     -3.42      0.00
  -11   38    8      5.29      0.00
  -10   38    8     -0.23      0.00
   -9   38    8      1.33      0.00
   -8   38    8     -0.15      0.00
   -7   38    8     -2.13      0.00
   -6   38    8     -0.17      0.00
   -5   38    8      0.02      0.00
   -4   38    8     -3.18      0.00
   -3   38    8     -1.01      0.00
  -19   39    8      0.48      0.00
  -18   39    8     -2.68      0.00
  -17   39    8     -1.97      0.00
  -16   39    8     -0.84      0.00
  -15   39    8      1.66      0.00
  -14   39    8     -1.77      0.00
  -13   39    8     -1.98      0.00
  -12   39    8     -4.66      0.00
  -11   39    8     -0.04      0.00
  -10   39    8      1.88      0.00
   -9   39    8      2.58      0.00
   -8   39    8      6.20      0.00
   -7   39    8     -4.05      0.00
   -6   39    8      3.08      0.00
   -5   39    8     12.08      0.00
  -20   40    8      5.75      0.00
  -19   40    8     -0.64      0.00
  -18   40    8      0.96      0.00
  -17   40    8     -0.80      0.00
  -16   40    8      2.91      0.00
  -15   40    8      0.14      0.00
  -14   40    8     -7.84      0.00
  -13   40    8     -1.90      0.00
  -12   40    8      1.39      0.00
  -11   40    8     -0.96      0.00
  -10   40    8     -0.61      0.00
   -9   40    8     -0.10      0.00
   -8   40    8     -1.83      0.00
   -7   40    8     -2.65      0.00
  -20   41    8      3.43      0.00
  -19   41    8      4.51      0.00
  -18   41    8     -1.55      0.00
  -17   41    8      3.64      0.00
  -16   41    8     -4.63      0.00
  -15   41    8      1.17      0.00
  -14   41    8      4.86      0.00
  -13   41    8     -2.69      0.00
  -12   41    8      4.43      0.00
  -11   41    8     -2.27      0.00
  -21   42    8     -6.24      0.00
  -20   42    8     -2.75      0.00
  -19   42    8     -1.37      0.00
  -18   42    8     -5.51      0.00
  -17   42    8     -4.40      0.00
  -16   42    8      7.31      0.00
  -15   42    8     -4.28      0.00
    0    1    9     23.86      0.00
   -1    2    9     37.62      0.00
    0    2    9     -1.80      0.00
   -1    3    9     29.71      0.00
    0    3    9     32.77      0.00
   -2    4    9      3.12      0.00
   -1    4    9     14.54      0.00
    0    4    9      6.09      0.00
   -2    5    9     20.68      0.00
   -1    5    9     15.02      0.00
    0    5    9     17.95      0.00
   -3    6    9     -9.14      0.00
   -2    6    9     12.95      0.00
   -1    6    9    -12.67      0.00
    0    6    9     10.26      0.00
   -3    7    9      5.84      0.00
   -2    7    9      4.82      0.00
   -1    7    9     -1.13      0.00
    0    7    9      3.40      0.00
   -4    8    9      1.49      0.00
   -3    8    9      2.45      0.00
   -2    8    9      6.22      0.00
   -1    8    9     -4.59      0.00
    0    8    9      6.29      0.00
   -4    9    9     -2.58      0.00
   -3    9    9     -0.64      0.00
   -2    9    9     -9.76      0.00
   -1    9    9      1.67      0.00
    0    9    9    -10.51      0.00
   -5   10    9     -7.75      0.00
   -4   10    9      6.15      0.00
   -3   10    9     -8.20      0.00
   -2   10    9      8.40      0.00
   -1   10    9     -7.88      0.00
    0   10    9     -7.75      0.00
   -5   11    9     -8.87      0.00
   -4   11    9     -6.94      0.00
   -3   11    9     -0.16      0.00
   -2   11    9     -8.16      0.00
   -1   11    9     -4.72      0.00
    0   11    9     -5.96      0.00
   -6   12    9     -4.22      0.00
   -5   12    9      0.83      0.00
   -4   12    9      3.95      0.00
   -3   12    9    -12.42      0.00
   -2   12    9      1.07      0.00
   -1   12    9      0.49      0.00
    0   12    9     -0.66      0.00
   -6   13    9      0.42      0.00
   -5   13    9     -7.61      0.00
   -4   13    9     -3.15      0.00
   -3   13    9     -7.51      0.00
   -2   13    9     -7.86      0.00
   -1   13    9     -7.62      0.00
    0   13    9     -0.61      0.00
   -7   14    9     -8.56      0.00
   -6   14    9      2.12      0.00
   -5   14    9      2.47      0.00
   -4   14    9      1.70      0.00
   -3   14    9      0.24      0.00
   -2   14    9     -4.77      0.00
   -1   14    9     -1.44      0.00
    0   14    9    -12.89      0.00
   -7   15    9      0.97      0.00
   -6   15    9     -8.66      0.00
   -5   15    9      2.42      0.00
   -4   15    9    -11.40      0.00
   -3   15    9     -2.55      0.00
   -2   15    9    -10.35      0.00
   -1   15    9     -1.80      0.00
    0   15    9    -10.33      0.00
   -8   16    9      7.19      0.00
   -7   16    9     -2.38      0.00
   -6   16    9      2.54      0.00
   -5   16    9     -4.78      0.00
   -4   16    9     -5.75      0.00
   -3   16    9     -4.56      0.00
   -2   16    9    -11.85      0.00
   -1   16    9     -1.06      0.00
    0   16    9    -15.03      0.00
   -8   17    9      5.40      0.00
   -7   17    9      4.40      0.00
   -6   17    9      5.39      0.00
   -5   17    9      5.09      0.00
   -4   17    9     -2.38      0.00
   -3   17    9     -4.19      0.00
   -2   17    9     -6.98      0.00
   -1   17    9      1.75      0.00
    0   17    9     -8.97      0.00
   -9   18    9      4.97      0.00
   -8   18    9      4.90      0.00
   -7   18    9     -6.36      0.00
   -6   18    9     -2.30      0.00
   -5   18    9     -5.17      0.00
   -4   18    9     10.76      0.00
   -3   18    9      2.11      0.00
   -2   18    9      2.42      0.00
   -1   18    9      5.55      0.00
    0   18    9      3.13      0.00
   -9   19    9     -1.58      0.00
   -8   19    9     -1.63      0.00
   -7   19    9      4.22      0.00
   -6   19    9     -2.36      0.00
   -5   19    9     -0.14      0.00
   -4   19    9     -2.08      0.00
   -3   19    9      1.57      0.00
   -2   19    9     -1.20      0.00
   -1   19    9     -0.10      0.00
    0   19    9      1.18      0.00
  -10   20    9     10.82      0.00
   -9   20    9     -4.67      0.00
   -8   20    9     10.17      0.00
   -7   20    9     -0.95      0.00
   -6   20    9      1.19      0.00
   -5   20    9      5.00      0.00
   -4   20    9     -4.41      0.00
   -3   20    9      3.39      0.00
   -2   20    9     -3.97      0.00
   -1   20    9      0.39      0.00
    0   20    9     -2.12      0.00
  -10   21    9     -3.53      0.00
   -9   21    9      2.31      0.00
   -8   21    9     -5.54      0.00
   -7   21    9     -3.87      0.00
   -6   21    9      4.55      0.00
   -5   21    9     -1.51      0.00
   -4   21    9      8.76      0.00
   -3   21    9     -1.26      0.00
   -2   21    9      5.21      0.00
   -1   21    9      0.12      0.00
    0   21    9     -8.13      0.00
  -11   22    9      2.43      0.00
  -10   22    9     18.37      0.00
   -9   22    9      4.28      0.00
   -8   22    9      9.15      0.00
   -7   22    9      5.54      0.00
   -6   22    9     -0.59      0.00
   -5   22    9      4.81      0.00
   -4   22    9     -4.50      0.00
   -3   22    9     -5.64      0.00
   -2   22    9     -2.33      0.00
   -1   22    9     -1.31      0.00
    0   22    9     -7.25      0.00
  -11   23    9     -6.67      0.00
  -10   23    9     -5.52      0.00
   -9   23    9     -7.03      0.00
   -8   23    9     -5.55      0.00
   -7   23    9      1.04      0.00
   -6   23    9      6.80      0.00
   -5   23    9      2.57      0.00
   -4   23    9      1.80      0.00
   -3   23    9     10.73      0.00
   -2   23    9     -3.70      0.00
   -1   23    9     -3.00      0.00
    0   23    9      4.42      0.00
  -12   24    9    -27.57      0.00
  -11   24    9     -9.32      0.00
  -10   24    9    -11.46      0.00
   -9   24    9     -6.72      0.00
   -8   24    9     -3.84      0.00
   -7   24    9      0.21      0.00
   -6   24    9      7.28      0.00
   -5   24    9     -4.66      0.00
   -4   24    9     -1.58      0.00
   -3   24    9     -2.77      0.00
   -2   24    9     -2.39      0.00
   -1   24    9     -5.72      0.00
    0   24    9    -12.02      0.00
  -12   25    9     -8.64      0.00
  -11   25    9     -9.64      0.00
  -10   25    9     -6.01      0.00
   -9   25    9      1.58      0.00
   -8   25    9     -2.21      0.00
   -7   25    9      6.37      0.00
   -6   25    9     -0.06      0.00
   -5   25    9      1.11      0.00
   -4   25    9      0.66      0.00
   -3   25    9      6.97      0.00
   -2   25    9     -2.81      0.00
   -1   25    9      0.20      0.00
    0   25    9     -9.25      0.00
  -13   26    9     -5.86      0.00
  -12   26    9     -7.86      0.00
  -11   26    9     -3.73      0.00
  -10   26    9     -8.98      0.00
   -9   26    9     -0.69      0.00
   -8   26    9     -1.61      0.00
   -7   26    9     -2.83      0.00
   -6   26    9      5.93      0.00
   -5   26    9     -5.08      0.00
   -4   26    9      4.26      0.00
   -3   26    9     -8.95      0.00
   -2   26    9     -1.09      0.00
   -1   26    9     -1.42      0.00
    0   26    9     -0.38      0.00
  -13   27    9     -1.45      0.00
  -12   27    9     -7.85      0.00
  -11   27    9      1.38      0.00
  -10   27    9     -4.33      0.00
   -9   27    9      0.04      0.00
   -8   27    9     -0.84      0.00
   -7   27    9     -1.67      0.00
   -6   27    9      0.32      0.00
   -5   27    9      1.32      0.00
   -4   27    9     -6.73      0.00
   -3   27    9     -3.32      0.00
   -2   27    9      6.64      0.00
   -1   27    9      2.57      0.00
    0   27    9     -4.91      0.00
  -14   28    9      1.94      0.00
  -13   28    9     -2.62      0.00
  -12   28    9     -3.35      0.00
  -11   28    9      0.79      0.00
  -10   28    9      2.51      0.00
   -9   28    9     -3.27      0.00
   -8   28    9     -5.50      0.00
   -7   28    9     -5.56      0.00
   -6   28    9      6.20      0.00
   -5   28    9     -1.17      0.00
   -4   28    9     -1.02      0.00
   -3   28    9     -3.95      0.00
   -2   28    9      3.99      0.00
   -1   28    9      2.37      0.00
    0   28    9      0.03      0.00
  -14   29    9      4.35      0.00
  -13   29    9     -0.56      0.00
  -12   29    9     -4.88      0.00
  -11   29    9      0.73      0.00
  -10   29    9      0.38      0.00
   -9   29    9     -4.10      0.00
   -8   29    9     -3.56      0.00
   -7   29    9      3.08      0.00
   -6   29    9    -11.50      0.00
   -5   29    9      7.96      0.00
   -4   29    9      1.02      0.00
   -3   29    9      0.59      0.00
   -2   29    9     -3.68      0.00
   -1   29    9     -0.61      0.00
    0   29    9      1.36      0.00
  -15   30    9     -7.02      0.00
  -14   30    9      2.79      0.00
  -13   30    9     -2.36      0.00
  -12   30    9      3.42      0.00
  -11   30    9     -0.91      0.00
  -10   30    9      0.87      0.00
   -9   30    9     -6.33      0.00
   -8   30    9     -3.91      0.00
   -7   30    9      3.29      0.00
   -6   30    9      6.92      0.00
   -5   30    9      0.50      0.00
   -4   30    9      1.43      0.00
   -3   30    9     -1.47      0.00
   -2   30    9     -1.61      0.00
   -1   30    9      0.16      0.00
    0   30    9      0.27      0.00
  -15   31    9     -5.64      0.00
  -14   31    9      1.95      0.00
  -13   31    9     -3.05      0.00
  -12   31    9      3.74      0.00
  -11   31    9     -1.97      0.00
  -10   31    9     -8.78      0.00
   -9   31    9     -2.27      0.00
   -8   31    9     16.61      0.00
   -7   31    9     -1.81      0.00
   -6   31    9      3.68      0.00
   -5   31    9     -0.37      0.00
   -4   31    9      6.19      0.00
   -3   31    9     -0.49      0.00
   -2   31    9     -1.14      0.00
   -1   31    9     -1.73      0.00
    0   31    9     -0.05      0.00
  -16   32    9      8.18      0.00
  -15   32    9      1.79      0.00
  -14   32    9      1.71      0.00
  -13   32    9     -0.28      0.00
  -12   32    9     -7.63      0.00
  -11   32    9     -4.08      0.00
  -10   32    9     -1.80      0.00
   -9   32    9      1.54      0.00
   -8   32    9      1.54      0.00
   -7   32    9      0.93      0.00
   -6   32    9    -12.72      0.00
   -5   32    9     -0.70      0.00
   -4   32    9      6.07      0.00
   -3   32    9      3.96      0.00
   -2   32    9      5.93      0.00
   -1   32    9      4.60      0.00
    0   32    9      9.51      0.00
  -16   33    9     -3.06      0.00
  -15   33    9      1.34      0.00
  -14   33    9     -9.03      0.00
  -13   33    9     -0.45      0.00
  -12   33    9    -10.32      0.00
  -11   33    9     -1.19      0.00
  -10   33    9     19.08      0.00
   -9   33    9     -0.89      0.00
   -8   33    9     -0.49      0.00
   -7   33    9      5.30      0.00
   -6   33    9      0.26      0.00
   -5   33    9     -3.43      0.00
   -4   33    9      2.16      0.00
   -3   33    9     -5.45      0.00
   -2   33    9     -7.33      0.00
   -1   33    9     -4.35      0.00
    0   33    9     -3.28      0.00
  -17   34    9      0.41      0.00
  -16   34    9      5.80      0.00
  -15   34    9      1.87      0.00
  -14   34    9      1.24      0.00
  -13   34    9     -0.32      0.00
  -12   34    9    -13.69      0.00
  -11   34    9     -0.10      0.00
  -10   34    9      0.95      0.00
   -9   34    9     -2.39      0.00
   -8   34    9     -1.09      0.00
   -7   34    9     -9.43      0.00
   -6   34    9      0.58      0.00
   -5   34    9    -12.31      0.00
   -4   34    9      4.50      0.00
   -3   34    9    -15.59      0.00
   -2   34    9     -3.34      0.00
   -1   34    9     -8.17      0.00
    0   34    9     -6.93      0.00
  -17   35    9     -2.47      0.00
  -16   35    9     14.04      0.00
  -15   35    9      2.95      0.00
  -14   35    9     -3.46      0.00
  -13   35    9     -0.27      0.00
  -12   35    9    -13.43      0.00
  -11   35    9      0.21      0.00
  -10   35    9     16.65      0.00
   -9   35    9      3.08      0.00
   -8   35    9      0.19      0.00
   -7   35    9      4.62      0.00
   -6   35    9      1.81      0.00
   -5   35    9     -4.02      0.00
   -4   35    9     -0.98      0.00
   -3   35    9     -0.05      0.00
   -2   35    9     -4.84      0.00
   -1   35    9     -3.91      0.00
    0   35    9     -7.86      0.00
  -18   36    9      0.79      0.00
  -17   36    9      1.35      0.00
  -16   36    9      0.73      0.00
  -15   36    9      0.76      0.00
  -14   36    9      9.36      0.00
  -13   36    9      0.63      0.00
  -12   36    9     -8.45      0.00
  -11   36    9     -4.81      0.00
  -10   36    9      2.18      0.00
   -9   36    9     10.97      0.00
   -8   36    9      0.91      0.00
   -7   36    9      4.86      0.00
   -6   36    9     -0.16      0.00
   -5   36    9      6.16      0.00
   -4   36    9     -4.35      0.00
   -3   36    9      6.38      0.00
   -2   36    9      0.55      0.00
   -1   36    9     -8.01      0.00
    0   36    9      2.40      0.00
  -18   37    9      2.63      0.00
  -17   37    9     -0.97      0.00
  -16   37    9      0.41      0.00
  -15   37    9     -0.03      0.00
  -14   37    9      0.84      0.00
  -13   37    9     -3.84      0.00
  -12   37    9     -7.79      0.00
  -11   37    9     -1.95      0.00
  -10   37    9     -4.01      0.00
   -9   37    9      5.05      0.00
   -8   37    9      0.65      0.00
   -7   37    9      2.33      0.00
   -6   37    9      6.03      0.00
   -5   37    9     -1.62      0.00
   -4   37    9      3.03      0.00
   -3   37    9      9.19      0.00
  -19   38    9     -2.22      0.00
  -18   38    9     -1.19      0.00
  -17   38    9     -4.28      0.00
  -16   38    9      1.50      0.00
  -15   38    9     -1.85      0.00
  -14   38    9    -19.72      0.00
  -13   38    9     -8.07      0.00
  -12   38    9     -3.38      0.00
  -11   38    9      2.42      0.00
  -10   38    9      1.44      0.00
   -9   38    9      0.00      0.00
   -8   38    9      0.31      0.00
   -7   38    9      1.20      0.00
   -6   38    9      1.19      0.00
   -5   38    9     -2.35      0.00
  -19   39    9    -11.59      0.00
  -18   39    9     -3.39      0.00
  -17   39    9      3.73      0.00
  -16   39    9     -2.92      0.00
  -15   39    9      0.89      0.00
  -14   39    9     -0.99      0.00
  -13   39    9      0.12      0.00
  -12   39    9      4.00      0.00
  -11   39    9     -0.63      0.00
  -10   39    9      3.65      0.00
   -9   39    9      0.32      0.00
   -8   39    9      0.16      0.00
   -7   39    9     -0.92      0.00
  -20   40    9     -2.80      0.00
  -19   40    9     -4.20      0.00
  -18   40    9     -1.45      0.00
  -17   40    9     -2.77      0.00
  -16   40    9      1.09      0.00
  -15   40    9     -4.06      0.00
  -14   40    9     -6.44      0.00
  -13   40    9      4.86      0.00
  -12   40    9     -2.31      0.00
  -11   40    9     -0.89      0.00
  -20   41    9     -6.44      0.00
  -19   41    9     12.55      0.00
  -18   41    9      0.18      0.00
  -17   41    9      3.07      0.00
  -16   41    9     -2.51      0.00
  -15   41    9     -1.96      0.00
    0    0   10     63.12      0.00
    0    1   10     12.91      0.00
   -1    2   10     23.74      0.00
    0    2   10     11.65      0.00
   -1    3   10     15.64      0.00
    0    3   10     -0.07      0.00
   -2    4   10     17.31      0.00
   -1    4   10     14.45      0.00
    0    4   10     17.16      0.00
   -2    5   10     -0.26      0.00
   -1    5   10     10.54      0.00
    0    5   10      8.63      0.00
   -3    6   10     12.92      0.00
   -2    6   10     10.33      0.00
   -1    6   10      0.85      0.00
    0    6   10      9.27      0.00
   -3    7   10      1.91      0.00
   -2    7   10     -0.02      0.00
   -1    7   10      7.66      0.00
    0    7   10      3.59      0.00
   -4    8   10    -11.99      0.00
   -3    8   10      4.34      0.00
   -2    8   10     -6.68      0.00
   -1    8   10     -1.56      0.00
    0    8   10     -8.83      0.00
   -4    9   10     -2.55      0.00
   -3    9   10      8.66      0.00
   -2    9   10     -8.41      0.00
   -1    9   10      4.98      0.00
    0    9   10     -4.99      0.00
   -5   10   10      0.93      0.00
   -4   10   10     -6.08      0.00
   -3   10   10     -5.23      0.00
   -2   10   10     -0.36      0.00
   -1   10   10     -2.40      0.00
    0   10   10     -6.30      0.00
   -5   11   10      0.90      0.00
   -4   11   10     -5.60      0.00
   -3   11   10      1.75      0.00
   -2   11   10     -9.67      0.00
   -1   11   10      1.64      0.00
    0   11   10     -3.71      0.00
   -6   12   10      0.53      0.00
   -5   12   10     -1.05      0.00
   -4   12   10     -2.67      0.00
   -3   12   10     -1.01      0.00
   -2   12   10      1.62      0.00
   -1   12   10     -2.74      0.00
    0   12   10     -7.32      0.00
   -6   13   10     -0.38      0.00
   -5   13   10     -5.73      0.00
   -4   13   10      2.53      0.00
   -3   13   10     -2.27      0.00
   -2   13   10     -3.80      0.00
   -1   13   10     -6.62      0.00
    0   13   10     12.17      0.00
   -7   14   10      2.06      0.00
   -6   14   10     -2.90      0.00
   -5   14   10      1.49      0.00
   -4   14   10     -7.42      0.00
   -3   14   10     -5.23      0.00
   -2   14   10    -11.15      0.00
   -1   14   10     -7.20      0.00
    0   14   10    -17.65      0.00
   -7   15   10      2.01      0.00
   -6   15   10      2.15      0.00
   -5   15   10     -1.72      0.00
   -4   15   10     -1.19      0.00
   -3   15   10     -6.26      0.00
   -2   15   10      7.18      0.00
   -1   15   10    -11.28      0.00
    0   15   10      7.41      0.00
   -8   16   10     -9.88      0.00
   -7   16   10      7.14      0.00
   -6   16   10     -3.14      0.00
   -5   16   10      2.86      0.00
   -4   16   10     -0.43      0.00
   -3   16   10     -8.22      0.00
   -2   16   10    -13.75      0.00
   -1   16   10     -3.41      0.00
    0   16   10     12.05      0.00
   -8   17   10      1.86      0.00
   -7   17   10     -0.30      0.00
   -6   17   10      6.57      0.00
   -5   17   10     -3.14      0.00
   -4   17   10      7.34      0.00
   -3   17   10     -4.92      0.00
   -2   17   10      1.09      0.00
   -1   17   10      0.75      0.00
    0   17   10     -8.41      0.00
   -9   18   10     11.51      0.00
   -8   18   10    -12.01      0.00
   -7   18   10      7.78      0.00
   -6   18   10     -4.95      0.00
   -5   18   10     -1.99      0.00
   -4   18   10      7.92      0.00
   -3   18   10      0.71      0.00
   -2   18   10      6.23      0.00
   -1   18   10     -1.50      0.00
    0   18   10      4.78      0.00
   -9   19   10      0.30      0.00
   -8   19   10     -1.00      0.00
   -7   19   10      6.69      0.00
   -6   19   10     -4.93      0.00
   -5   19   10      6.16      0.00
   -4   19   10     -3.76      0.00
   -3   19   10      1.77      0.00
   -2   19   10     -4.81      0.00
   -1   19   10     -0.75      0.00
    0   19   10      1.31      0.00
  -10   20   10      3.32      0.00
   -9   20   10     10.40      0.00
   -8   20   10     -3.66      0.00
   -7   20   10      3.84      0.00
   -6   20   10     -1.61      0.00
   -5   20   10      2.22      0.00
   -4   20   10     -2.53      0.00
   -3   20   10      1.52      0.00
   -2   20   10     -2.06      0.00
   -1   20   10     -4.74      0.00
    0   20   10     -3.48      0.00
  -10   21   10     -1.83      0.00
   -9   21   10      7.59      0.00
   -8   21   10     -5.51      0.00
   -7   21   10      7.02      0.00
   -6   21   10     -3.40      0.00
   -5   21   10     13.88      0.00
   -4   21   10      5.54      0.00
   -3   21   10      1.54      0.00
   -2   21   10      6.24      0.00
   -1   21   10     -2.10      0.00
    0   21   10      1.08      0.00
  -11   22   10     -1.08      0.00
  -10   22   10    -28.74      0.00
   -9   22   10     -4.88      0.00
   -8   22   10     16.85      0.00
   -7   22   10     -2.36      0.00
   -6   22   10      2.79      0.00
   -5   22   10     -1.60      0.00
   -4   22   10     -6.73      0.00
   -3   22   10     -2.26      0.00
   -2   22   10     -6.66      0.00
   -1   22   10     -0.36      0.00
    0   22   10     -9.13      0.00
  -11   23   10     -6.11      0.00
  -10   23   10     -4.19      0.00
   -9   23   10     -8.82      0.00
   -8   23   10     -3.92      0.00
   -7   23   10      3.83      0.00
   -6   23   10      2.58      0.00
   -5   23   10      5.00      0.00
   -4   23   10     -2.20      0.00
   -3   23   10      8.82      0.00
   -2   23   10     -3.54      0.00
   -1   23   10    -14.97      0.00
    0   23   10     -4.28      0.00
  -12   24   10      0.92      0.00
  -11   24   10     -8.27      0.00
  -10   24   10     -4.08      0.00
   -9   24   10     -3.60      0.00
   -8   24   10     -6.54      0.00
   -7   24   10     -0.72      0.00
   -6   24   10      9.60      0.00
   -5   24   10     -0.80      0.00
   -4   24   10     -0.13      0.00
   -3   24   10      1.32      0.00
   -2   24   10     -0.47      0.00
   -1   24   10     -1.94      0.00
    0   24   10     -1.19      0.00
  -12   25   10    -10.49      0.00
  -11   25   10     -9.84      0.00
  -10   25   10     -4.54      0.00
   -9   25   10     -4.81      0.00
   -8   25   10      0.68      0.00
   -7   25   10     -4.34      0.00
   -6   25   10      2.96      0.00
   -5   25   10     -7.39      0.00
   -4   25   10     -1.68      0.00
   -3   25   10      3.42      0.00
   -2   25   10     -2.27      0.00
   -1   25   10     -1.01      0.00
    0   25   10      5.90      0.00
  -13   26   10     -9.43      0.00
  -12   26   10     -5.44      0.00
  -11   26   10     -5.59      0.00
  -10   26   10      3.75      0.00
   -9   26   10     -2.19      0.00
   -8   26   10      0.31      0.00
   -7   26   10     -5.91      0.00
   -6   26   10     -8.44      0.00
   -5   26   10     -1.38      0.00
   -4   26   10      3.99      0.00
   -3   26   10     -0.15      0.00
   -2   26   10      1.03      0.00
   -1   26   10      0.02      0.00
    0   26   10      2.77      0.00
  -13   27   10     -5.74      0.00
  -12   27   10     -5.41      0.00
  -11   27   10      2.00      0.00
  -10   27   10     -5.43      0.00
   -9   27   10     -2.05      0.00
   -8   27   10      2.00      0.00
   -7   27   10     -9.78      0.00
   -6   27   10      6.09      0.00
   -5   27   10     -5.30      0.00
   -4   27   10     -6.22      0.00
   -3   27   10     -3.00      0.00
   -2   27   10      2.58      0.00
   -1   27   10      0.09      0.00
    0   27   10      0.29      0.00
  -14   28   10     -5.65      0.00
  -13   28   10     -0.78      0.00
  -12   28   10     -6.41      0.00
  -11   28   10      1.02      0.00
  -10   28   10      3.65      0.00
   -9   28   10      4.00      0.00
   -8   28   10     -1.90      0.00
   -7   28   10     -6.05      0.00
   -6   28   10      1.10      0.00
   -5   28   10      0.94      0.00
   -4   28   10      0.61      0.00
   -3   28   10     -4.46      0.00
   -2   28   10      1.72      0.00
   -1   28   10     -0.83      0.00
    0   28   10      1.07      0.00
  -14   29   10      2.93      0.00
  -13   29   10     -5.22      0.00
  -12   29   10      2.85      0.00
  -11   29   10     -1.50      0.00
  -10   29   10     -2.70      0.00
   -9   29   10     -3.39      0.00
   -8   29   10     -2.82      0.00
   -7   29   10      1.37      0.00
   -6   29   10     -6.10      0.00
   -5   29   10      3.89      0.00
   -4   29   10      1.20      0.00
   -3   29   10      4.86      0.00
   -2   29   10     -1.31      0.00
   -1   29   10     -1.64      0.00
    0   29   10      5.08      0.00
  -15   30   10     -0.47      0.00
  -14   30   10     -3.09      0.00
  -13   30   10      1.70      0.00
  -12   30   10     -2.58      0.00
  -11   30   10      7.38      0.00
  -10   30   10     -3.57      0.00
   -9   30   10     -6.85      0.00
   -8   30   10     -4.42      0.00
   -7   30   10      3.37      0.00
   -6   30   10      6.34      0.00
   -5   30   10      2.43      0.00
   -4   30   10      0.88      0.00
   -3   30   10     -1.58      0.00
   -2   30   10      1.86      0.00
   -1   30   10      1.63      0.00
    0   30   10      2.30      0.00
  -15   31   10     -7.22      0.00
  -14   31   10      1.90      0.00
  -13   31   10     -3.14      0.00
  -12   31   10      1.12      0.00
  -11   31   10     -4.58      0.00
  -10   31   10    -13.14      0.00
   -9   31   10     -3.72      0.00
   -8   31   10     10.11      0.00
   -7   31   10     -1.94      0.00
   -6   31   10      1.62      0.00
   -5   31   10     -2.43      0.00
   -4   31   10      0.88      0.00
   -3   31   10      0.89      0.00
   -2   31   10      3.60      0.00
   -1   31   10      3.80      0.00
    0   31   10      0.85      0.00
  -16   32   10      0.95      0.00
  -15   32   10     11.85      0.00
  -14   32   10     -2.00      0.00
  -13   32   10     -2.75      0.00
  -12   32   10     -7.50      0.00
  -11   32   10     -6.73      0.00
  -10   32   10     -4.12      0.00
   -9   32   10      3.43      0.00
   -8   32   10     -2.09      0.00
   -7   32   10      4.13      0.00
   -6   32   10     -3.07      0.00
   -5   32   10      2.56      0.00
   -4   32   10     -2.85      0.00
   -3   32   10     -2.51      0.00
   -2   32   10     -6.62      0.00
   -1   32   10     -0.22      0.00
    0   32   10     -3.62      0.00
  -16   33   10      3.66      0.00
  -15   33   10      1.99      0.00
  -14   33   10     16.34      0.00
  -13   33   10     -0.03      0.00
  -12   33   10     -9.05      0.00
  -11   33   10     -0.70      0.00
  -10   33   10      7.72      0.00
   -9   33   10     -0.35      0.00
   -8   33   10     -4.21      0.00
   -7   33   10     -2.45      0.00
   -6   33   10     -5.80      0.00
   -5   33   10      7.82      0.00
   -4   33   10     -0.98      0.00
   -3   33   10     -3.43      0.00
   -2   33   10     -3.59      0.00
   -1   33   10     -3.81      0.00
    0   33   10     -7.50      0.00
  -17   34   10      5.62      0.00
  -16   34   10     -0.62      0.00
  -15   34   10     -0.74      0.00
  -14   34   10     -5.32      0.00
  -13   34   10     -1.04      0.00
  -12   34   10     -4.34      0.00
  -11   34   10     -3.44      0.00
  -10   34   10      1.78      0.00
   -9   34   10     -0.24      0.00
   -8   34   10      5.47      0.00
   -7   34   10    -10.47      0.00
   -6   34   10      2.95      0.00
   -5   34   10      5.46      0.00
   -4   34   10      2.65      0.00
   -3   34   10      4.92      0.00
   -2   34   10     -4.49      0.00
   -1   34   10    -11.78      0.00
    0   34   10     -2.05      0.00
  -17   35   10      0.32      0.00
  -16   35   10      2.81      0.00
  -15   35   10      2.19      0.00
  -14   35   10     -5.80      0.00
  -13   35   10     -1.45      0.00
  -12   35   10    -10.82      0.00
  -11   35   10      0.03      0.00
  -10   35   10      9.95      0.00
   -9   35   10      1.54      0.00
   -8   35   10     -2.55      0.00
   -7   35   10      3.04      0.00
   -6   35   10     -0.44      0.00
   -5   35   10     -1.76      0.00
   -4   35   10     -2.79      0.00
   -3   35   10     -4.51      0.00
   -2   35   10     -8.61      0.00
   -1   35   10     -4.16      0.00
  -18   36   10      0.37      0.00
  -17   36   10      5.41      0.00
  -16   36   10     -2.89      0.00
  -15   36   10     -1.27      0.00
  -14   36   10      7.08      0.00
  -13   36   10     -3.29      0.00
  -12   36   10     -3.53      0.00
  -11   36   10     -8.91      0.00
  -10   36   10      0.77      0.00
   -9   36   10     10.26      0.00
   -8   36   10      1.31      0.00
   -7   36   10      3.42      0.00
   -6   36   10     -5.09      0.00
   -5   36   10      3.64      0.00
   -4   36   10     -0.11      0.00
   -3   36   10      4.80      0.00
  -18   37   10     -0.52      0.00
  -17   37   10      0.67      0.00
  -16   37   10      0.99      0.00
  -15   37   10      0.47      0.00
  -14   37   10     -2.47      0.00
  -13   37   10     -1.64      0.00
  -12   37   10     -5.81      0.00
  -11   37   10      0.08      0.00
  -10   37   10     -0.06      0.00
   -9   37   10      1.77      0.00
   -8   37   10      0.80      0.00
   -7   37   10      4.70      0.00
   -6   37   10      1.68      0.00
   -5   37   10      0.80      0.00
  -19   38   10     -2.82      0.00
  -18   38   10     -3.33      0.00
  -17   38   10      1.03      0.00
  -16   38   10     -2.10      0.00
  -15   38   10     -3.24      0.00
  -14   38   10      4.52      0.00
  -13   38   10     -5.45      0.00
  -12   38   10     -2.53      0.00
  -11   38   10      5.22      0.00
  -10   38   10      2.02      0.00
   -9   38   10     -2.33      0.00
   -8   38   10      0.22      0.00
  -19   39   10     -9.92      0.00
  -18   39   10     -0.74      0.00
  -17   39   10      2.73      0.00
  -16   39   10     -3.34      0.00
  -15   39   10     -0.88      0.00
  -14   39   10      0.30      0.00
  -13   39   10     -4.28      0.00
  -12   39   10     -2.93      0.00
  -11   39   10     -1.22      0.00
  -20   40   10     -1.88      0.00
  -19   40   10     -3.83      0.00
  -18   40   10     -3.90      0.00
  -17   40   10     -4.74      0.00
  -16   40   10     -0.53      0.00
    0    0   11     62.55      0.00
    0    1   11      4.98      0.00
   -1    2   11      8.79      0.00
    0    2   11     17.01      0.00
   -1    3   11     13.34      0.00
    0    3   11     -7.92      0.00
   -2    4   11      7.98      0.00
   -1    4   11      5.18      0.00
    0    4   11     17.03      0.00
   -2    5   11     -2.29      0.00
   -1    5   11      3.99      0.00
    0    5   11      8.23      0.00
   -3    6   11     12.38      0.00
   -2    6   11      1.42      0.00
   -1    6   11      3.59      0.00
    0    6   11     -1.20      0.00
   -3    7   11     -4.27      0.00
   -2    7   11      5.24      0.00
   -1    7   11      2.38      0.00
    0    7   11     12.00      0.00
   -4    8   11    -12.67      0.00
   -3    8   11      6.67      0.00
   -2    8   11     -8.10      0.00
   -1    8   11      0.24      0.00
    0    8   11     -8.24      0.00
   -4    9   11     -3.14      0.00
   -3    9   11     -3.75      0.00
   -2    9   11      4.35      0.00
   -1    9   11     -0.35      0.00
    0    9   11      8.06      0.00
   -5   10   11      0.86      0.00
   -4   10   11     -8.09      0.00
   -3   10   11      3.52      0.00
   -2   10   11      0.08      0.00
   -1   10   11     -3.30      0.00
    0   10   11     -3.54      0.00
   -5   11   11     -2.84      0.00
   -4   11   11      1.38      0.00
   -3   11   11     -6.57      0.00
   -2   11   11      3.94      0.00
   -1   11   11     -0.49      0.00
    0   11   11      2.72      0.00
   -6   12   11      3.79      0.00
   -5   12   11      2.03      0.00
   -4   12   11     -0.02      0.00
   -3   12   11     -0.15      0.00
   -2   12   11     -2.10      0.00
   -1   12   11     -2.43      0.00
    0   12   11     -7.25      0.00
   -6   13   11     -1.00      0.00
   -5   13   11     -3.94      0.00
   -4   13   11      0.52      0.00
   -3   13   11     -0.79      0.00
   -2   13   11     -3.94      0.00
   -1   13   11     -3.04      0.00
    0   13   11      3.17      0.00
   -7   14   11      1.48      0.00
   -6   14   11      1.93      0.00
   -5   14   11      1.86      0.00
   -4   14   11     -3.55      0.00
   -3   14   11      6.25      0.00
   -2   14   11     -4.40      0.00
   -1   14   11     -2.99      0.00
    0   14   11    -10.25      0.00
   -7   15   11      2.34      0.00
   -6   15   11      0.07      0.00
   -5   15   11      0.23      0.00
   -4   15   11     -5.54      0.00
   -3   15   11     -1.88      0.00
   -2   15   11     -5.80      0.00
   -1   15   11     -2.58      0.00
    0   15   11     -5.39      0.00
   -8   16   11      4.62      0.00
   -7   16   11     -2.41      0.00
   -6   16   11      4.40      0.00
   -5   16   11      2.62      0.00
   -4   16   11     12.88      0.00
   -3   16   11     -0.67      0.00
   -2   16   11      8.93      0.00
   -1   16   11      3.96      0.00
    0   16   11     10.37      0.00
   -8   17   11      3.25      0.00
   -7   17   11      2.55      0.00
   -6   17   11      0.53      0.00
   -5   17   11     -1.06      0.00
   -4   17   11     -3.16      0.00
   -3   17   11     -1.42      0.00
   -2   17   11     -5.41      0.00
   -1   17   11      0.38      0.00
    0   17   11    -14.14      0.00
   -9   18   11     -7.10      0.00
   -8   18   11      4.52      0.00
   -7   18   11     -6.30      0.00
   -6   18   11      0.64      0.00
   -5   18   11     -7.07      0.00
   -4   18   11      3.78      0.00
   -3   18   11      1.78      0.00
   -2   18   11     -0.08      0.00
   -1   18   11      2.68      0.00
    0   18   11     12.57      0.00
   -9   19   11      2.57      0.00
   -8   19   11     -2.84      0.00
   -7   19   11      4.23      0.00
   -6   19   11      0.85      0.00
   -5   19   11      2.05      0.00
   -4   19   11      3.08      0.00
   -3   19   11      1.80      0.00
   -2   19   11     -0.92      0.00
   -1   19   11     -9.24      0.00
    0   19   11     -1.73      0.00
  -10   20   11     12.09      0.00
   -9   20   11    -12.88      0.00
   -8   20   11      5.58      0.00
   -7   20   11     -9.21      0.00
   -6   20   11     -1.94      0.00
   -5   20   11      4.10      0.00
   -4   20   11     -3.53      0.00
   -3   20   11      0.90      0.00
   -2   20   11      0.21      0.00
   -1   20   11     -1.73      0.00
    0   20   11     -4.79      0.00
  -10   21   11     -3.43      0.00
   -9   21   11      1.86      0.00
   -8   21   11     -0.99      0.00
   -7   21   11     -8.00      0.00
   -6   21   11      5.41      0.00
   -5   21   11      0.19      0.00
   -4   21   11      7.86      0.00
   -3   21   11     -7.00      0.00
   -2   21   11      1.28      0.00
   -1   21   11     -4.39      0.00
    0   21   11     -6.00      0.00
  -11   22   11     -5.13      0.00
  -10   22   11      7.95      0.00
   -9   22   11      1.84      0.00
   -8   22   11      8.49      0.00
   -7   22   11      6.00      0.00
   -6   22   11     -1.64      0.00
   -5   22   11      1.46      0.00
   -4   22   11     -5.92      0.00
   -3   22   11      4.59      0.00
   -2   22   11      3.30      0.00
   -1   22   11     -7.32      0.00
    0   22   11      2.72      0.00
  -11   23   11     -4.78      0.00
  -10   23   11     -3.53      0.00
   -9   23   11     -5.35      0.00
   -8   23   11      6.93      0.00
   -7   23   11     -5.52      0.00
   -6   23   11      1.65      0.00
   -5   23   11     -1.84      0.00
   -4   23   11     -1.61      0.00
   -3   23   11     -0.59      0.00
   -2   23   11     -3.46      0.00
   -1   23   11      4.56      0.00
    0   23   11     -8.91      0.00
  -12   24   11     -6.30      0.00
  -11   24   11     -3.40      0.00
  -10   24   11     -3.23      0.00
   -9   24   11      0.10      0.00
   -8   24   11     -1.79      0.00
   -7   24   11     -1.30      0.00
   -6   24   11     -8.03      0.00
   -5   24   11      2.58      0.00
   -4   24   11      8.63      0.00
   -3   24   11      2.83      0.00
   -2   24   11     -3.03      0.00
   -1   24   11      4.26      0.00
    0   24   11      3.00      0.00
  -12   25   11     -5.11      0.00
  -11   25   11    -15.50      0.00
  -10   25   11     -2.06      0.00
   -9   25   11     -0.78      0.00
   -8   25   11     -2.06      0.00
   -7   25   11     -3.87      0.00
   -6   25   11     -3.47      0.00
   -5   25   11     -1.69      0.00
   -4   25   11     -9.23      0.00
   -3   25   11      4.10      0.00
   -2   25   11     -7.09      0.00
   -1   25   11     -5.93      0.00
    0   25   11     15.00      0.00
  -13   26   11     -4.90      0.00
  -12   26   11     -8.81      0.00
  -11   26   11     -3.32      0.00
  -10   26   11     -7.86      0.00
   -9   26   11      8.96      0.00
   -8   26   11     -4.81      0.00
   -7   26   11     -2.30      0.00
   -6   26   11     -8.96      0.00
   -5   26   11      1.27      0.00
   -4   26   11     -0.98      0.00
   -3   26   11     -4.88      0.00
   -2   26   11      0.83      0.00
   -1   26   11      2.78      0.00
    0   26   11      3.28      0.00
  -13   27   11      5.38      0.00
  -12   27   11     -2.80      0.00
  -11   27   11      6.09      0.00
  -10   27   11     -0.82      0.00
   -9   27   11      6.36      0.00
   -8   27   11     -2.57      0.00
   -7   27   11     -0.03      0.00
   -6   27   11     -6.85      0.00
   -5   27   11     -1.01      0.00
   -4   27   11      0.85      0.00
   -3   27   11      5.95      0.00
   -2   27   11      6.91      0.00
   -1   27   11      0.16      0.00
    0   27   11    -10.22      0.00
  -14   28   11     -6.22      0.00
  -13   28   11     -4.32      0.00
  -12   28   11     -4.99      0.00
  -11   28   11     -0.05      0.00
  -10   28   11     -0.29      0.00
   -9   28   11      3.08      0.00
   -8   28   11     -2.69      0.00
   -7   28   11     -1.61      0.00
   -6   28   11      2.03      0.00
   -5   28   11      3.80      0.00
   -4   28   11     -2.77      0.00
   -3   28   11     -0.47      0.00
   -2   28   11      3.04      0.00
   -1   28   11     -3.88      0.00
    0   28   11      4.70      0.00
  -14   29   11     -5.84      0.00
  -13   29   11      3.84      0.00
  -12   29   11     -5.66      0.00
  -11   29   11      3.67      0.00
  -10   29   11    -10.93      0.00
   -9   29   11      1.56      0.00
   -8   29   11     -1.93      0.00
   -7   29   11     -2.58      0.00
   -6   29   11     -2.35      0.00
   -5   29   11      0.86      0.00
   -4   29   11     -3.47      0.00
   -3   29   11      0.25      0.00
   -2   29   11     12.41      0.00
   -1   29   11      0.25      0.00
    0   29   11      5.25      0.00
  -15   30   11      0.13      0.00
  -14   30   11      2.11      0.00
  -13   30   11     -5.16      0.00
  -12   30   11      2.30      0.00
  -11   30   11     -2.58      0.00
  -10   30   11     -3.37      0.00
   -9   30   11     -3.71      0.00
   -8   30   11     -1.18      0.00
   -7   30   11      3.49      0.00
   -6   30   11     -6.86      0.00
   -5   30   11     -2.94      0.00
   -4   30   11     -0.68      0.00
   -3   30   11     -0.03      0.00
   -2   30   11      0.35      0.00
   -1   30   11     -1.98      0.00
    0   30   11     -9.23      0.00
  -15   31   11      8.85      0.00
  -14   31   11      2.46      0.00
  -13   31   11     -1.94      0.00
  -12   31   11     -2.99      0.00
  -11   31   11      1.21      0.00
  -10   31   11     -1.71      0.00
   -9   31   11     -4.67      0.00
   -8   31   11      2.16      0.00
   -7   31   11      6.11      0.00
   -6   31   11      3.67      0.00
   -5   31   11     -4.62      0.00
   -4   31   11      6.03      0.00
   -3   31   11     -3.87      0.00
   -2   31   11      2.31      0.00
   -1   31   11      5.48      0.00
    0   31   11     -5.21      0.00
  -16   32   11      6.41      0.00
  -15   32   11      0.68      0.00
  -14   32   11      7.70      0.00
  -13   32   11      3.76      0.00
  -12   32   11     -0.24      0.00
  -11   32   11      0.47      0.00
  -10   32   11     -4.10      0.00
   -9   32   11      0.63      0.00
   -8   32   11     -2.00      0.00
   -7   32   11      2.62      0.00
   -6   32   11     -3.18      0.00
   -5   32   11      1.36      0.00
   -4   32   11      1.12      0.00
   -3   32   11      7.88      0.00
   -2   32   11      2.40      0.00
   -1   32   11      6.47      0.00
    0   32   11      6.30      0.00
  -16   33   11     -2.39      0.00
  -15   33   11     -2.59      0.00
  -14   33   11      2.13      0.00
  -13   33   11      1.64      0.00
  -12   33   11     -4.62      0.00
  -11   33   11     -2.40      0.00
  -10   33   11     -2.16      0.00
   -9   33   11     -3.37      0.00
   -8   33   11      1.41      0.00
   -7   33   11      0.40      0.00
   -6   33   11     -2.41      0.00
   -5   33   11     -0.69      0.00
   -4   33   11     -1.78      0.00
   -3   33   11      2.45      0.00
   -2   33   11     -5.22      0.00
   -1   33   11     -4.66      0.00
    0   33   11     -2.51      0.00
  -17   34   11      3.78      0.00
  -16   34   11     -1.68      0.00
  -15   34   11     -0.47      0.00
  -14   34   11     -2.47      0.00
  -13   34   11      0.15      0.00
  -12   34   11      3.71      0.00
  -11   34   11     -3.89      0.00
  -10   34   11      1.15      0.00
   -9   34   11     -6.06      0.00
   -8   34   11      3.30      0.00
   -7   34   11      2.81      0.00
   -6   34   11      5.53      0.00
   -5   34   11     -1.65      0.00
   -4   34   11      1.73      0.00
   -3   34   11     -4.14      0.00
   -2   34   11      1.26      0.00
   -1   34   11      2.06      0.00
  -17   35   11      3.53      0.00
  -16   35   11      6.23      0.00
  -15   35   11     -3.72      0.00
  -14   35   11     -4.97      0.00
  -13   35   11     -4.79      0.00
  -12   35   11      0.30      0.00
  -11   35   11     -4.07      0.00
  -10   35   11      0.93      0.00
   -9   35   11      3.50      0.00
   -8   35   11      0.63      0.00
   -7   35   11      5.50      0.00
   -6   35   11     -3.70      0.00
   -5   35   11     -7.80      0.00
   -4   35   11     -2.56      0.00
  -18   36   11     -4.96      0.00
  -17   36   11     -0.48      0.00
  -16   36   11      3.51      0.00
  -15   36   11      0.79      0.00
  -14   36   11     -4.09      0.00
  -13   36   11      4.61      0.00
  -12   36   11      5.92      0.00
  -11   36   11     -2.74      0.00
  -10   36   11     -1.56      0.00
   -9   36   11      7.77      0.00
   -8   36   11      3.19      0.00
   -7   36   11     -2.50      0.00
   -6   36   11     -0.57      0.00
  -18   37   11      5.74      0.00
  -17   37   11    -10.72      0.00
  -16   37   11      2.22      0.00
  -15   37   11     -2.85      0.00
  -14   37   11      9.96      0.00
  -13   37   11      1.40      0.00
  -12   37   11      1.02      0.00
  -11   37   11     -3.96      0.00
  -10   37   11     -5.78      0.00
   -9   37   11     -6.93      0.00
  -19   38   11     -6.70      0.00
  -18   38   11     -4.83      0.00
  -17   38   11     -4.13      0.00
  -16   38   11     -2.13      0.00
  -15   38   11     -1.04      0.00
  -14   38   11     -3.01      0.00
  -13   38   11      5.46      0.00
    0    0   12      9.40      0.00
    0    1   12      7.74      0.00
   -1    2   12     15.66      0.00
    0    2   12     -8.92      0.00
   -1    3   12     14.76      0.00
    0    3   12     -1.41      0.00
   -2    4   12     -1.05      0.00
   -1    4   12     -3.67      0.00
    0    4   12     13.64      0.00
   -2    5   12      4.33      0.00
   -1    5   12     -1.79      0.00
    0    5   12      6.79      0.00
   -3    6   12      1.24      0.00
   -2    6   12     -4.43      0.00
   -1    6   12     -9.52      0.00
    0    6   12      2.24      0.00
   -3    7   12     -3.38      0.00
   -2    7   12      2.06      0.00
   -1    7   12     -0.23      0.00
    0    7   12     -3.45      0.00
   -4    8   12      0.59      0.00
   -3    8   12     -0.84      0.00
   -2    8   12      1.50      0.00
   -1    8   12      0.21      0.00
    0    8   12      2.24      0.00
   -4    9   12     -1.83      0.00
   -3    9   12      2.55      0.00
   -2    9   12    -14.23      0.00
   -1    9   12     15.62      0.00
    0    9   12     -4.10      0.00
   -5   10   12     -4.42      0.00
   -4   10   12     -1.42      0.00
   -3   10   12     -3.96      0.00
   -2   10   12      7.35      0.00
   -1   10   12     -5.25      0.00
    0   10   12      6.66      0.00
   -5   11   12     -1.17      0.00
   -4   11   12     -2.22      0.00
   -3   11   12      0.37      0.00
   -2   11   12     -9.46      0.00
   -1   11   12      7.04      0.00
    0   11   12     -4.40      0.00
   -6   12   12      3.94      0.00
   -5   12   12     -7.81      0.00
   -4   12   12      7.46      0.00
   -3   12   12     -7.86      0.00
   -2   12   12      6.90      0.00
   -1   12   12     -2.57      0.00
    0   12   12     -5.12      0.00
   -6   13   12     -1.13      0.00
   -5   13   12     -0.68      0.00
   -4   13   12     -2.37      0.00
   -3   13   12      7.28      0.00
   -2   13   12     -5.68      0.00
   -1   13   12     -6.79      0.00
    0   13   12      4.91      0.00
   -7   14   12      1.89      0.00
   -6   14   12      7.35      0.00
   -5   14   12      0.28      0.00
   -4   14   12      6.88      0.00
   -3   14   12      5.03      0.00
   -2   14   12     -0.83      0.00
   -1   14   12      5.66      0.00
    0   14   12     -6.67      0.00
   -7   15   12      0.79      0.00
   -6   15   12      7.74      0.00
   -5   15   12     -0.37      0.00
   -4   15   12     -0.33      0.00
   -3   15   12     -4.23      0.00
   -2   15   12      7.76      0.00
   -1   15   12     -1.44      0.00
    0   15   12      4.62      0.00
   -8   16   12     -3.96      0.00
   -7   16   12     -0.12      0.00
   -6   16   12     -2.88      0.00
   -5   16   12      1.55      0.00
   -4   16   12      3.45      0.00
   -3   16   12     -1.78      0.00
   -2   16   12     -2.64      0.00
   -1   16   12      0.64      0.00
    0   16   12      5.39      0.00
   -8   17   12      4.36      0.00
   -7   17   12      3.69      0.00
   -6   17   12      5.25      0.00
   -5   17   12      5.17      0.00
   -4   17   12      8.81      0.00
   -3   17   12     -4.90      0.00
   -2   17   12      2.21      0.00
   -1   17   12      1.55      0.00
    0   17   12     -6.31      0.00
   -9   18   12      7.08      0.00
   -8   18   12     -6.14      0.00
   -7   18   12      2.04      0.00
   -6   18   12     -2.54      0.00
   -5   18   12      2.08      0.00
   -4   18   12     -0.87      0.00
   -3   18   12      2.99      0.00
   -2   18   12      2.89      0.00
   -1   18   12      0.65      0.00
    0   18   12     -0.10      0.00
   -9   19   12      5.25      0.00
   -8   19   12      2.50      0.00
   -7   19   12     -7.10      0.00
   -6   19   12      3.29      0.00
   -5   19   12     -7.50      0.00
   -4   19   12     -3.35      0.00
   -3   19   12     -0.71      0.00
   -2   19   12     -0.95      0.00
   -1   19   12      3.38      0.00
    0   19   12     -3.64      0.00
  -10   20   12     -2.12      0.00
   -9   20   12      2.93      0.00
   -8   20   12     -1.87      0.00
   -7   20   12      4.03      0.00
   -6   20   12     -1.28      0.00
   -5   20   12     -0.45      0.00
   -4   20   12     -3.34      0.00
   -3   20   12     -0.64      0.00
   -2   20   12     -2.06      0.00
   -1   20   12     -9.44      0.00
    0   20   12     -1.24      0.00
  -10   21   12      1.56      0.00
   -9   21   12      4.21      0.00
   -8   21   12     -2.54      0.00
   -7   21   12     -1.43      0.00
   -6   21   12     -3.80      0.00
   -5   21   12     -0.99      0.00
   -4   21   12      2.94      0.00
   -3   21   12     -2.23      0.00
   -2   21   12      4.29      0.00
   -1   21   12      0.14      0.00
    0   21   12     -2.47      0.00
  -11   22   12      7.66      0.00
  -10   22   12     -2.62      0.00
   -9   22   12      3.32      0.00
   -8   22   12      3.41      0.00
   -7   22   12     -1.80      0.00
   -6   22   12     -7.46      0.00
   -5   22   12     -5.93      0.00
   -4   22   12     -0.64      0.00
   -3   22   12     -0.89      0.00
   -2   22   12     -1.99      0.00
   -1   22   12      4.45      0.00
    0   22   12     -2.58      0.00
  -11   23   12      5.04      0.00
  -10   23   12     -3.70      0.00
   -9   23   12     -1.08      0.00
   -8   23   12     -2.97      0.00
   -7   23   12      0.35      0.00
   -6   23   12     -3.43      0.00
   -5   23   12      1.61      0.00
   -4   23   12     -3.62      0.00
   -3   23   12      1.99      0.00
   -2   23   12     -0.48      0.00
   -1   23   12      6.55      0.00
    0   23   12      1.34      0.00
  -12   24   12     -2.71      0.00
  -11   24   12     -3.86      0.00
  -10   24   12      0.02      0.00
   -9   24   12     -4.98      0.00
   -8   24   12     -2.45      0.00
   -7   24   12     -4.97      0.00
   -6   24   12     -7.14      0.00
   -5   24   12     -3.07      0.00
   -4   24   12     -3.33      0.00
   -3   24   12     -7.60      0.00
   -2   24   12     -3.11      0.00
   -1   24   12      1.60      0.00
    0   24   12      1.22      0.00
  -12   25   12      4.07      0.00
  -11   25   12     -2.91      0.00
  -10   25   12      3.58      0.00
   -9   25   12     -0.65      0.00
   -8   25   12      5.10      0.00
   -7   25   12     -4.30      0.00
   -6   25   12      1.52      0.00
   -5   25   12     -6.15      0.00
   -4   25   12     -0.93      0.00
   -3   25   12     -3.66      0.00
   -2   25   12      2.40      0.00
   -1   25   12     -7.55      0.00
    0   25   12     -7.33      0.00
  -13   26   12     -7.62      0.00
  -12   26   12     -0.42      0.00
  -11   26   12     -0.40      0.00
  -10   26   12     -5.04      0.00
   -9   26   12     -2.49      0.00
   -8   26   12      1.77      0.00
   -7   26   12     -1.34      0.00
   -6   26   12      0.91      0.00
   -5   26   12     -1.33      0.00
   -4   26   12     11.13      0.00
   -3   26   12      5.20      0.00
   -2   26   12     -9.75      0.00
   -1   26   12      6.55      0.00
    0   26   12      1.44      0.00
  -13   27   12     -1.76      0.00
  -12   27   12     -1.60      0.00
  -11   27   12     -3.24      0.00
  -10   27   12      3.31      0.00
   -9   27   12      0.82      0.00
   -8   27   12      0.83      0.00
   -7   27   12     -2.31      0.00
   -6   27   12      4.99      0.00
   -5   27   12     -4.66      0.00
   -4   27   12      3.76      0.00
   -3   27   12     -2.74      0.00
   -2   27   12      2.47      0.00
   -1   27   12     13.31      0.00
    0   27   12     -1.01      0.00
  -14   28   12     -1.36      0.00
  -13   28   12     -1.75      0.00
  -12   28   12      0.11      0.00
  -11   28   12     -0.23      0.00
  -10   28   12      9.95      0.00
   -9   28   12    -11.77      0.00
   -8   28   12      5.51      0.00
   -7   28   12      4.51      0.00
   -6   28   12     10.78      0.00
   -5   28   12     12.23      0.00
   -4   28   12     -4.58      0.00
   -3   28   12     -0.09      0.00
   -2   28   12      2.03      0.00
   -1   28   12     13.73      0.00
    0   28   12     -2.13      0.00
  -14   29   12      6.92      0.00
  -13   29   12      3.42      0.00
  -12   29   12     -4.04      0.00
  -11   29   12     -3.34      0.00
  -10   29   12     -2.41      0.00
   -9   29   12     -6.78      0.00
   -8   29   12      0.23      0.00
   -7   29   12     -0.96      0.00
   -6   29   12     -3.63      0.00
   -5   29   12     -0.65      0.00
   -4   29   12     -5.94      0.00
   -3   29   12     -2.74      0.00
   -2   29   12     -0.99      0.00
   -1   29   12     -1.39      0.00
    0   29   12      2.03      0.00
  -15   30   12      6.34      0.00
  -14   30   12      9.01      0.00
  -13   30   12     -2.57      0.00
  -12   30   12      2.38      0.00
  -11   30   12     -9.25      0.00
  -10   30   12      0.01      0.00
   -9   30   12     -2.10      0.00
   -8   30   12     -1.51      0.00
   -7   30   12     -1.19      0.00
   -6   30   12     -4.89      0.00
   -5   30   12     -1.83      0.00
   -4   30   12     -3.54      0.00
   -3   30   12      6.93      0.00
   -2   30   12      0.06      0.00
   -1   30   12      9.57      0.00
    0   30   12     -2.03      0.00
  -15   31   12      3.55      0.00
  -14   31   12      7.93      0.00
  -13   31   12      0.97      0.00
  -12   31   12      0.06      0.00
  -11   31   12     -1.22      0.00
  -10   31   12     -1.53      0.00
   -9   31   12     -3.05      0.00
   -8   31   12     -3.44      0.00
   -7   31   12     -1.02      0.00
   -6   31   12      0.69      0.00
   -5   31   12     -1.96      0.00
   -4   31   12     -2.78      0.00
   -3   31   12      2.84      0.00
   -2   31   12     -5.06      0.00
   -1   31   12      5.53      0.00
    0   31   12     10.20      0.00
  -16   32   12      5.13      0.00
  -15   32   12     -0.77      0.00
  -14   32   12     -0.35      0.00
  -13   32   12      1.27      0.00
  -12   32   12     -1.11      0.00
  -11   32   12     -5.20      0.00
  -10   32   12      1.24      0.00
   -9   32   12     -3.10      0.00
   -8   32   12      1.58      0.00
   -7   32   12      2.00      0.00
   -6   32   12     -3.82      0.00
   -5   32   12     -3.03      0.00
   -4   32   12     -1.15      0.00
   -3   32   12     -6.43      0.00
   -2   32   12     -3.67      0.00
   -1   32   12    -12.35      0.00
    0   32   12      4.44      0.00
  -16   33   12     -2.42      0.00
  -15   33   12     -1.87      0.00
  -14   33   12      5.02      0.00
  -13   33   12      1.58      0.00
  -12   33   12      0.89      0.00
  -11   33   12     -1.07      0.00
  -10   33   12     -2.31      0.00
   -9   33   12      0.99      0.00
   -8   33   12      0.78      0.00
   -7   33   12      3.98      0.00
   -6   33   12      0.86      0.00
   -5   33   12      5.14      0.00
   -4   33   12      3.02      0.00
   -3   33   12      1.07      0.00
   -2   33   12     10.28      0.00
  -17   34   12    -12.76      0.00
  -16   34   12      1.67      0.00
  -15   34   12     -3.26      0.00
  -14   34   12     -3.06      0.00
  -13   34   12      3.48      0.00
  -12   34   12      2.61      0.00
  -11   34   12      2.02      0.00
  -10   34   12      1.83      0.00
   -9   34   12      0.03      0.00
   -8   34   12      7.90      0.00
   -7   34   12     -6.73      0.00
   -6   34   12      3.42      0.00
   -5   34   12     -4.82      0.00
  -17   35   12     -5.07      0.00
  -16   35   12      4.59      0.00
  -15   35   12      5.95      0.00
  -14   35   12     -9.22      0.00
  -13   35   12      3.43      0.00
  -12   35   12     -2.01      0.00
  -11   35   12      1.46      0.00
  -10   35   12     -1.55      0.00
   -9   35   12      0.74      0.00
   -8   35   12      0.53      0.00
   -7   35   12      2.98      0.00
  -18   36   12     -5.24      0.00
  -17   36   12     -3.49      0.00
  -16   36   12      3.70      0.00
  -15   36   12     -0.30      0.00
  -14   36   12     -7.67      0.00
  -13   36   12      3.68      0.00
  -12   36   12      1.04      0.00
  -11   36   12     -3.11      0.00
  -18   37   12     -1.89      0.00
  -17   37   12      0.33      0.00
    0    0   13     15.73      0.00
    0    1   13      3.57      0.00
   -1    2   13      7.78      0.00
    0    2   13    -13.17      0.00
   -1    3   13      6.58      0.00
    0    3   13     -3.09      0.00
   -2    4   13     -9.47      0.00
   -1    4   13     -2.07      0.00
    0    4   13      3.03      0.00
   -2    5   13      0.09      0.00
   -1    5   13     -7.39      0.00
    0    5   13     -2.51      0.00
   -3    6   13      3.08      0.00
   -2    6   13     -2.95      0.00
   -1    6   13    -10.15      0.00
    0    6   13      5.44      0.00
   -3    7   13     -4.53      0.00
   -2    7   13     -1.55      0.00
   -1    7   13     -8.89      0.00
    0    7   13     -1.24      0.00
   -4    8   13     -2.76      0.00
   -3    8   13     -1.99      0.00
   -2    8   13      1.38      0.00
   -1    8   13    -10.34      0.00
    0    8   13     -1.10      0.00
   -4    9   13      3.96      0.00
   -3    9   13      3.02      0.00
   -2    9   13     -4.44      0.00
   -1    9   13     -0.27      0.00
    0    9   13     -0.58      0.00
   -5   10   13     -5.83      0.00
   -4   10   13     -5.16      0.00
   -3   10   13     -4.72      0.00
   -2   10   13      0.28      0.00
   -1   10   13     -9.97      0.00
    0   10   13     -1.31      0.00
   -5   11   13      2.14      0.00
   -4   11   13      1.09      0.00
   -3   11   13     -2.90      0.00
   -2   11   13      5.18      0.00
   -1   11   13     -5.89      0.00
    0   11   13      8.40      0.00
   -6   12   13      0.65      0.00
   -5   12   13      3.23      0.00
   -4   12   13      3.99      0.00
   -3   12   13     -2.19      0.00
   -2   12   13     -2.45      0.00
   -1   12   13      1.79      0.00
    0   12   13     -4.54      0.00
   -6   13   13      1.47      0.00
   -5   13   13     -2.53      0.00
   -4   13   13      2.67      0.00
   -3   13   13     -7.63      0.00
   -2   13   13      3.60      0.00
   -1   13   13      5.53      0.00
    0   13   13     10.30      0.00
   -7   14   13      7.38      0.00
   -6   14   13     -3.40      0.00
   -5   14   13      3.72      0.00
   -4   14   13     -4.35      0.00
   -3   14   13      8.67      0.00
   -2   14   13     -0.75      0.00
   -1   14   13      0.17      0.00
    0   14   13     -2.54      0.00
   -7   15   13      2.56      0.00
   -6   15   13      1.62      0.00
   -5   15   13      6.61      0.00
   -4   15   13      1.13      0.00
   -3   15   13      0.61      0.00
   -2   15   13      3.73      0.00
   -1   15   13     -1.68      0.00
    0   15   13     -0.95      0.00
   -8   16   13     -7.13      0.00
   -7   16   13      6.02      0.00
   -6   16   13     -5.61      0.00
   -5   16   13     -0.21      0.00
   -4   16   13      0.40      0.00
   -3   16   13      4.35      0.00
   -2   16   13     -0.41      0.00
   -1   16   13     -4.67      0.00
    0   16   13      5.12      0.00
   -8   17   13      2.51      0.00
   -7   17   13      8.00      0.00
   -6   17   13      0.44      0.00
   -5   17   13      3.38      0.00
   -4   17   13     -3.73      0.00
   -3   17   13      6.14      0.00
   -2   17   13    -13.42      0.00
   -1   17   13      1.12      0.00
    0   17   13     -5.43      0.00
   -9   18   13      1.18      0.00
   -8   18   13      0.14      0.00
   -7   18   13      2.63      0.00
   -6   18   13     -2.25      0.00
   -5   18   13      1.61      0.00
   -4   18   13     -0.80      0.00
   -3   18   13     -0.16      0.00
   -2   18   13      2.58      0.00
   -1   18   13      2.56      0.00
    0   18   13     -2.56      0.00
   -9   19   13      3.46      0.00
   -8   19   13     -2.31      0.00
   -7   19   13      6.26      0.00
   -6   19   13     -5.04      0.00
   -5   19   13      5.73      0.00
   -4   19   13     -6.31      0.00
   -3   19   13      1.09      0.00
   -2   19   13      3.25      0.00
   -1   19   13     -1.09      0.00
    0   19   13     -3.50      0.00
  -10   20   13      2.82      0.00
   -9   20   13      0.47      0.00
   -8   20   13      2.70      0.00
   -7   20   13      3.24      0.00
   -6   20   13      3.93      0.00
   -5   20   13      0.57      0.00
   -4   20   13     -2.79      0.00
   -3   20   13     -2.89      0.00
   -2   20   13     -1.22      0.00
   -1   20   13      2.17      0.00
    0   20   13     -2.25      0.00
  -10   21   13     -1.89      0.00
   -9   21   13      5.14      0.00
   -8   21   13     -7.20      0.00
   -7   21   13      1.16      0.00
   -6   21   13     -7.86      0.00
   -5   21   13     -5.23      0.00
   -4   21   13     -7.03      0.00
   -3   21   13     -4.31      0.00
   -2   21   13     15.90      0.00
   -1   21   13     -4.41      0.00
    0   21   13      5.16      0.00
  -11   22   13      3.72      0.00
  -10   22   13     -0.33      0.00
   -9   22   13      5.59      0.00
   -8   22   13      6.38      0.00
   -7   22   13      1.12      0.00
   -6   22   13     -5.75      0.00
   -5   22   13     -7.45      0.00
   -4   22   13     -7.63      0.00
   -3   22   13     -0.15      0.00
   -2   22   13      2.22      0.00
   -1   22   13     -0.25      0.00
    0   22   13     -1.25      0.00
  -11   23   13     -6.92      0.00
  -10   23   13      8.94      0.00
   -9   23   13     -0.10      0.00
   -8   23   13      0.54      0.00
   -7   23   13     -5.89      0.00
   -6   23   13     -5.42      0.00
   -5   23   13     -5.29      0.00
   -4   23   13      1.22      0.00
   -3   23   13     -0.31      0.00
   -2   23   13      4.72      0.00
   -1   23   13     -0.26      0.00
    0   23   13     -2.76      0.00
  -12   24   13      3.50      0.00
  -11   24   13     -1.19      0.00
  -10   24   13     -0.84      0.00
   -9   24   13     -2.59      0.00
   -8   24   13     -6.36      0.00
   -7   24   13     -5.44      0.00
   -6   24   13     -3.14      0.00
   -5   24   13     -9.51      0.00
   -4   24   13      1.37      0.00
   -3   24   13      2.93      0.00
   -2   24   13      1.98      0.00
   -1   24   13     -3.30      0.00
    0   24   13      1.12      0.00
  -12   25   13      8.18      0.00
  -11   25   13     -8.75      0.00
  -10   25   13      3.20      0.00
   -9   25   13     -5.43      0.00
   -8   25   13     -5.20      0.00
   -7   25   13    -11.71      0.00
   -6   25   13      2.97      0.00
   -5   25   13     -0.84      0.00
   -4   25   13     -2.64      0.00
   -3   25   13     -0.95      0.00
   -2   25   13      1.55      0.00
   -1   25   13     -0.07      0.00
    0   25   13      5.90      0.00
  -13   26   13      4.34      0.00
  -12   26   13     -5.60      0.00
  -11   26   13      2.23      0.00
  -10   26   13      9.07      0.00
   -9   26   13      3.31      0.00
   -8   26   13     -0.48      0.00
   -7   26   13     -0.76      0.00
   -6   26   13      4.67      0.00
   -5   26   13     -6.64      0.00
   -4   26   13     -0.05      0.00
   -3   26   13     -2.72      0.00
   -2   26   13      2.83      0.00
   -1   26   13     -3.36      0.00
    0   26   13      7.07      0.00
  -13   27   13     -3.45      0.00
  -12   27   13      2.21      0.00
  -11   27   13      4.28      0.00
  -10   27   13     -7.44      0.00
   -9   27   13      3.38      0.00
   -8   27   13     -2.80      0.00
   -7   27   13     10.23      0.00
   -6   27   13      2.64      0.00
   -5   27   13     -4.47      0.00
   -4   27   13     -6.42      0.00
   -3   27   13      4.02      0.00
   -2   27   13      6.28      0.00
   -1   27   13      3.03      0.00
    0   27   13      7.39      0.00
  -14   28   13      1.37      0.00
  -13   28   13     -1.55      0.00
  -12   28   13     -0.93      0.00
  -11   28   13      2.40      0.00
  -10   28   13      0.69      0.00
   -9   28   13      3.67      0.00
   -8   28   13     -0.32      0.00
   -7   28   13     -1.18      0.00
   -6   28   13      2.85      0.00
   -5   28   13     -4.80      0.00
   -4   28   13     11.43      0.00
   -3   28   13     -6.04      0.00
   -2   28   13     -0.60      0.00
   -1   28   13     -3.42      0.00
    0   28   13     10.66      0.00
  -14   29   13     -2.17      0.00
  -13   29   13      4.80      0.00
  -12   29   13     -2.59      0.00
  -11   29   13      1.29      0.00
  -10   29   13     -1.31      0.00
   -9   29   13     -0.66      0.00
   -8   29   13     -3.45      0.00
   -7   29   13     -3.00      0.00
   -6   29   13      1.63      0.00
   -5   29   13      3.14      0.00
   -4   29   13     -3.37      0.00
   -3   29   13      1.19      0.00
   -2   29   13     -3.41      0.00
   -1   29   13      4.95      0.00
    0   29   13      8.83      0.00
  -15   30   13      5.45      0.00
  -14   30   13      4.37      0.00
  -13   30   13      3.51      0.00
  -12   30   13      3.49      0.00
  -11   30   13      9.11      0.00
  -10   30   13     -9.52      0.00
   -9   30   13     -7.82      0.00
   -8   30   13     -1.61      0.00
   -7   30   13      5.00      0.00
   -6   30   13     -6.19      0.00
   -5   30   13      0.93      0.00
   -4   30   13      0.70      0.00
   -3   30   13     -4.71      0.00
   -2   30   13     -3.17      0.00
   -1   30   13     -3.93      0.00
    0   30   13     -7.48      0.00
  -15   31   13      0.29      0.00
  -14   31   13     14.18      0.00
  -13   31   13      0.15      0.00
  -12   31   13      7.60      0.00
  -11   31   13      1.13      0.00
  -10   31   13      3.58      0.00
   -9   31   13     -1.61      0.00
   -8   31   13      3.14      0.00
   -7   31   13      2.87      0.00
   -6   31   13      1.52      0.00
   -5   31   13     -2.87      0.00
   -4   31   13     -3.16      0.00
   -3   31   13     -1.97      0.00
   -2   31   13      5.44      0.00
  -16   32   13     -0.37      0.00
  -15   32   13      2.97      0.00
  -14   32   13      5.38      0.00
  -13   32   13      2.27      0.00
  -12   32   13      8.73      0.00
  -11   32   13      8.45      0.00
  -10   32   13    -17.78      0.00
   -9   32   13      5.81      0.00
   -8   32   13    -10.03      0.00
   -7   32   13      3.51      0.00
   -6   32   13      5.89      0.00
   -5   32   13     -6.02      0.00
   -4   32   13      0.10      0.00
  -16   33   13     -8.40      0.00
  -15   33   13     -0.25      0.00
  -14   33   13      3.52      0.00
  -13   33   13      0.68      0.00
  -12   33   13      3.12      0.00
  -11   33   13      1.98      0.00
  -10   33   13      3.63      0.00
   -9   33   13      2.50      0.00
   -8   33   13      3.93      0.00
   -7   33   13     -0.87      0.00
  -17   34   13     11.77      0.00
  -16   34   13     -2.35      0.00
  -15   34   13      5.51      0.00
  -14   34   13     -2.73      0.00
  -13   34   13    -11.18      0.00
  -12   34   13     -1.35      0.00
  -11   34   13    -11.61      0.00
  -10   34   13      8.72      0.00
  -17   35   13     -3.54      0.00
  -16   35   13    -12.10      0.00
  -15   35   13      1.69      0.00
    0    0   14     36.82      0.00
    0    1   14     -5.47      0.00
   -1    2   14     -3.09      0.00
    0    2   14     -1.08      0.00
   -1    3   14    -11.90      0.00
    0    3   14     -2.69      0.00
   -2    4   14      0.81      0.00
   -1    4   14     -6.12      0.00
    0    4   14      6.20      0.00
   -2    5   14     -5.29      0.00
   -1    5   14     -9.69      0.00
    0    5   14     -3.06      0.00
   -3    6   14      7.94      0.00
   -2    6   14     -8.61      0.00
   -1    6   14     -6.23      0.00
    0    6   14     -4.81      0.00
   -3    7   14     -3.54      0.00
   -2    7   14     -2.92      0.00
   -1    7   14     -4.02      0.00
    0    7   14     -1.38      0.00
   -4    8   14    -18.01      0.00
   -3    8   14     -3.79      0.00
   -2    8   14     -9.83      0.00
   -1    8   14     -7.56      0.00
    0    8   14    -15.84      0.00
   -4    9   14     -0.69      0.00
   -3    9   14      3.08      0.00
   -2    9   14     -5.33      0.00
   -1    9   14      1.13      0.00
    0    9   14     -0.53      0.00
   -5   10   14      5.17      0.00
   -4   10   14     13.76      0.00
   -3   10   14     -0.40      0.00
   -2   10   14    -22.37      0.00
   -1   10   14     -1.40      0.00
    0   10   14      4.16      0.00
   -5   11   14     -1.44      0.00
   -4   11   14      5.55      0.00
   -3   11   14     -2.05      0.00
   -2   11   14     -4.22      0.00
   -1   11   14      9.28      0.00
    0   11   14      3.40      0.00
   -6   12   14     -1.44      0.00
   -5   12   14      1.83      0.00
   -4   12   14      3.28      0.00
   -3   12   14      2.29      0.00
   -2   12   14      1.40      0.00
   -1   12   14      4.34      0.00
    0   12   14     -5.55      0.00
   -6   13   14     -0.79      0.00
   -5   13   14     -2.42      0.00
   -4   13   14     -4.61      0.00
   -3   13   14     -3.12      0.00
   -2   13   14     -6.88      0.00
   -1   13   14      3.87      0.00
    0   13   14     -0.16      0.00
   -7   14   14      5.00      0.00
   -6   14   14      9.50      0.00
   -5   14   14     -3.70      0.00
   -4   14   14      1.06      0.00
   -3   14   14      1.88      0.00
   -2   14   14      2.84      0.00
   -1   14   14      2.94      0.00
    0   14   14     -0.76      0.00
   -7   15   14     -2.63      0.00
   -6   15   14     -1.45      0.00
   -5   15   14      1.97      0.00
   -4   15   14     -1.88      0.00
   -3   15   14     -0.64      0.00
   -2   15   14     -1.94      0.00
   -1   15   14     -1.80      0.00
    0   15   14     -1.71      0.00
   -8   16   14      9.89      0.00
   -7   16   14     -1.41      0.00
   -6   16   14      3.25      0.00
   -5   16   14     -1.26      0.00
   -4   16   14      2.54      0.00
   -3   16   14     -1.25      0.00
   -2   16   14      0.60      0.00
   -1   16   14     -4.14      0.00
    0   16   14     -2.99      0.00
   -8   17   14      1.56      0.00
   -7   17   14     -1.01      0.00
   -6   17   14      2.18      0.00
   -5   17   14      0.10      0.00
   -4   17   14      0.10      0.00
   -3   17   14      4.04      0.00
   -2   17   14     -4.87      0.00
   -1   17   14     -0.09      0.00
    0   17   14     -5.17      0.00
   -9   18   14     -3.45      0.00
   -8   18   14      5.06      0.00
   -7   18   14     -1.03      0.00
   -6   18   14      5.95      0.00
   -5   18   14     -4.16      0.00
   -4   18   14     -5.65      0.00
   -3   18   14      1.36      0.00
   -2   18   14     -0.63      0.00
   -1   18   14      4.09      0.00
    0   18   14      4.73      0.00
   -9   19   14     -1.54      0.00
   -8   19   14      6.50      0.00
   -7   19   14     -0.44      0.00
   -6   19   14     -1.24      0.00
   -5   19   14     -1.88      0.00
   -4   19   14      7.42      0.00
   -3   19   14     -3.24      0.00
   -2   19   14     -4.30      0.00
   -1   19   14     -1.40      0.00
    0   19   14     -1.64      0.00
  -10   20   14      0.83      0.00
   -9   20   14      1.58      0.00
   -8   20   14      1.07      0.00
   -7   20   14     -1.50      0.00
   -6   20   14      3.50      0.00
   -5   20   14      2.90      0.00
   -4   20   14      1.08      0.00
   -3   20   14     -6.18      0.00
   -2   20   14     -0.25      0.00
   -1   20   14      0.79      0.00
    0   20   14      4.18      0.00
  -10   21   14     -2.15      0.00
   -9   21   14      3.02      0.00
   -8   21   14    -10.03      0.00
   -7   21   14      1.96      0.00
   -6   21   14     16.19      0.00
   -5   21   14      0.56      0.00
   -4   21   14      5.36      0.00
   -3   21   14      3.49      0.00
   -2   21   14      3.05      0.00
   -1   21   14      4.89      0.00
    0   21   14     -1.45      0.00
  -11   22   14     -0.03      0.00
  -10   22   14      6.27      0.00
   -9   22   14     -4.52      0.00
   -8   22   14      4.38      0.00
   -7   22   14      1.08      0.00
   -6   22   14    -10.85      0.00
   -5   22   14     -5.51      0.00
   -4   22   14     -3.16      0.00
   -3   22   14     13.49      0.00
   -2   22   14     -1.52      0.00
   -1   22   14      5.36      0.00
    0   22   14      5.95      0.00
  -11   23   14      0.70      0.00
  -10   23   14      1.37      0.00
   -9   23   14      2.01      0.00
   -8   23   14     -5.85      0.00
   -7   23   14     -5.05      0.00
   -6   23   14    -16.94      0.00
   -5   23   14     -6.80      0.00
   -4   23   14    -20.47      0.00
   -3   23   14      0.79      0.00
   -2   23   14     -9.29      0.00
   -1   23   14     -0.82      0.00
    0   23   14      0.60      0.00
  -12   24   14      0.98      0.00
  -11   24   14     -1.82      0.00
  -10   24   14      4.58      0.00
   -9   24   14     -2.65      0.00
   -8   24   14    -12.54      0.00
   -7   24   14      1.14      0.00
   -6   24   14     -4.66      0.00
   -5   24   14    -15.34      0.00
   -4   24   14     -1.11      0.00
   -3   24   14     10.23      0.00
   -2   24   14     -3.48      0.00
   -1   24   14      0.87      0.00
    0   24   14      2.33      0.00
  -12   25   14      0.51      0.00
  -11   25   14     -8.64      0.00
  -10   25   14      6.17      0.00
   -9   25   14      2.99      0.00
   -8   25   14      2.54      0.00
   -7   25   14      1.56      0.00
   -6   25   14     -0.41      0.00
   -5   25   14      4.81      0.00
   -4   25   14     -0.84      0.00
   -3   25   14      5.51      0.00
   -2   25   14     -0.09      0.00
   -1   25   14      4.77      0.00
    0   25   14     -0.17      0.00
  -13   26   14     -3.37      0.00
  -12   26   14     -1.40      0.00
  -11   26   14      1.75      0.00
  -10   26   14      0.96      0.00
   -9   26   14      7.95      0.00
   -8   26   14     -0.27      0.00
   -7   26   14     -0.83      0.00
   -6   26   14     -0.88      0.00
   -5   26   14     10.68      0.00
   -4   26   14      2.41      0.00
   -3   26   14     -1.29      0.00
   -2   26   14     -1.28      0.00
   -1   26   14      1.12      0.00
    0   26   14      6.94      0.00
  -13   27   14      3.48      0.00
  -12   27   14     -5.35      0.00
  -11   27   14      9.19      0.00
  -10   27   14     -0.01      0.00
   -9   27   14      2.06      0.00
   -8   27   14     -5.58      0.00
   -7   27   14     -1.81      0.00
   -6   27   14     -2.57      0.00
   -5   27   14     -5.50      0.00
   -4   27   14     -0.20      0.00
   -3   27   14      0.67      0.00
   -2   27   14      1.64      0.00
   -1   27   14      0.98      0.00
    0   27   14      2.73      0.00
  -14   28   14     -7.65      0.00
  -13   28   14      0.86      0.00
  -12   28   14     -1.08      0.00
  -11   28   14      3.24      0.00
  -10   28   14     -8.34      0.00
   -9   28   14     -9.64      0.00
   -8   28   14     -4.13      0.00
   -7   28   14     -8.30      0.00
   -6   28   14     -2.72      0.00
   -5   28   14     -0.22      0.00
   -4   28   14     -4.25      0.00
   -3   28   14     -2.71      0.00
   -2   28   14      3.86      0.00
   -1   28   14     -8.39      0.00
    0   28   14     -8.21      0.00
  -14   29   14      0.09      0.00
  -13   29   14      2.09      0.00
  -12   29   14      2.10      0.00
  -11   29   14     -0.79      0.00
  -10   29   14     -2.01      0.00
   -9   29   14      2.65      0.00
   -8   29   14     -0.26      0.00
   -7   29   14     -1.00      0.00
   -6   29   14      0.56      0.00
   -5   29   14     -1.14      0.00
   -4   29   14      1.94      0.00
   -3   29   14      2.69      0.00
   -2   29   14      3.19      0.00
  -15   30   14      4.83      0.00
  -14   30   14      3.59      0.00
  -13   30   14      4.56      0.00
  -12   30   14      5.11      0.00
  -11   30   14      7.37      0.00
  -10   30   14     12.80      0.00
   -9   30   14      4.84      0.00
   -8   30   14     -8.45      0.00
   -7   30   14      3.92      0.00
   -6   30   14     -8.22      0.00
   -5   30   14     -6.19      0.00
   -4   30   14      5.71      0.00
  -15   31   14      1.99      0.00
  -14   31   14     10.34      0.00
  -13   31   14      0.59      0.00
  -12   31   14      0.68      0.00
  -11   31   14      3.70      0.00
  -10   31   14      2.92      0.00
   -9   31   14      2.64      0.00
   -8   31   14      0.25      0.00
   -7   31   14      1.54      0.00
   -6   31   14      4.04      0.00
  -16   32   14      0.67      0.00
  -15   32   14      4.82      0.00
  -14   32   14      0.63      0.00
  -13   32   14      7.15      0.00
  -12   32   14      3.21      0.00
  -11   32   14      9.84      0.00
  -10   32   14     15.17      0.00
    0    0   15     20.33      0.00
    0    1   15      2.16      0.00
   -1    2   15     -2.09      0.00
    0    2   15     -3.19      0.00
   -1    3   15    -14.52      0.00
    0    3   15     -3.73      0.00
   -2    4   15     -2.60      0.00
   -1    4   15      1.32      0.00
    0    4   15      5.87      0.00
   -2    5   15      2.45      0.00
   -1    5   15     -5.57      0.00
    0    5   15    -13.37      0.00
   -3    6   15     -0.40      0.00
   -2    6   15     -8.60      0.00
   -1    6   15     -3.83      0.00
    0    6   15     -0.96      0.00
   -3    7   15      2.86      0.00
   -2    7   15     -3.92      0.00
   -1    7   15     -2.14      0.00
    0    7   15    -12.52      0.00
   -4    8   15     -6.61      0.00
   -3    8   15      0.74      0.00
   -2    8   15     -8.44      0.00
   -1    8   15     -1.51      0.00
    0    8   15    -10.70      0.00
   -4    9   15     -2.29      0.00
   -3    9   15     -7.29      0.00
   -2    9   15     -7.10      0.00
   -1    9   15      6.39      0.00
    0    9   15    -13.58      0.00
   -5   10   15      7.14      0.00
   -4   10   15      7.94      0.00
   -3   10   15      4.29      0.00
   -2   10   15     16.15      0.00
   -1   10   15      1.57      0.00
    0   10   15      3.03      0.00
   -5   11   15     -1.75      0.00
   -4   11   15     -2.56      0.00
   -3   11   15      1.81      0.00
   -2   11   15     -1.63      0.00
   -1   11   15      0.85      0.00
    0   11   15      1.94      0.00
   -6   12   15      1.98      0.00
   -5   12   15      2.78      0.00
   -4   12   15      5.80      0.00
   -3   12   15      1.25      0.00
   -2   12   15      4.13      0.00
   -1   12   15     -2.82      0.00
    0   12   15     -9.50      0.00
   -6   13   15      2.21      0.00
   -5   13   15      2.14      0.00
   -4   13   15     -1.49      0.00
   -3   13   15     -0.45      0.00
   -2   13   15      3.93      0.00
   -1   13   15     -2.48      0.00
    0   13   15      8.12      0.00
   -7   14   15      2.39      0.00
   -6   14   15     -2.77      0.00
   -5   14   15     -2.92      0.00
   -4   14   15     -3.22      0.00
   -3   14   15     -5.03      0.00
   -2   14   15      3.63      0.00
   -1   14   15     -4.70      0.00
    0   14   15     -4.09      0.00
   -7   15   15      1.00      0.00
   -6   15   15      4.74      0.00
   -5   15   15     -1.36      0.00
   -4   15   15      3.00      0.00
   -3   15   15     -5.96      0.00
   -2   15   15     14.74      0.00
   -1   15   15     -6.30      0.00
    0   15   15     11.56      0.00
   -8   16   15     -6.26      0.00
   -7   16   15      4.87      0.00
   -6   16   15     -2.66      0.00
   -5   16   15     -0.52      0.00
   -4   16   15      0.46      0.00
   -3   16   15      3.21      0.00
   -2   16   15      3.62      0.00
   -1   16   15     -7.21      0.00
    0   16   15      2.51      0.00
   -8   17   15      6.01      0.00
   -7   17   15      1.99      0.00
   -6   17   15      7.33      0.00
   -5   17   15     -2.82      0.00
   -4   17   15      4.19      0.00
   -3   17   15     -1.77      0.00
   -2   17   15     -1.39      0.00
   -1   17   15     -2.38      0.00
    0   17   15      5.42      0.00
   -9   18   15     -2.58      0.00
   -8   18   15     -1.67      0.00
   -7   18   15     -1.85      0.00
   -6   18   15      0.43      0.00
   -5   18   15     -0.53      0.00
   -4   18   15      3.94      0.00
   -3   18   15     -2.12      0.00
   -2   18   15      0.12      0.00
   -1   18   15      0.00      0.00
    0   18   15     -1.00      0.00
   -9   19   15     -1.81      0.00
   -8   19   15      4.36      0.00
   -7   19   15     -0.19      0.00
   -6   19   15      3.81      0.00
   -5   19   15      2.92      0.00
   -4   19   15      8.93      0.00
   -3   19   15     -0.78      0.00
   -2   19   15      0.09      0.00
   -1   19   15      3.03      0.00
    0   19   15     -7.64      0.00
  -10   20   15      1.11      0.00
   -9   20   15     -3.86      0.00
   -8   20   15      2.39      0.00
   -7   20   15      0.81      0.00
   -6   20   15      5.07      0.00
   -5   20   15      0.76      0.00
   -4   20   15     -2.62      0.00
   -3   20   15     -7.31      0.00
   -2   20   15      2.19      0.00
   -1   20   15      2.90      0.00
    0   20   15     -2.00      0.00
  -10   21   15     -1.54      0.00
   -9   21   15      2.11      0.00
   -8   21   15    -10.29      0.00
   -7   21   15     -0.23      0.00
   -6   21   15    -11.80      0.00
   -5   21   15     -1.25      0.00
   -4   21   15      7.83      0.00
   -3   21   15     -0.70      0.00
   -2   21   15     10.54      0.00
   -1   21   15      1.64      0.00
    0   21   15      0.74      0.00
  -11   22   15     -2.70      0.00
  -10   22   15      4.43      0.00
   -9   22   15      4.48      0.00
   -8   22   15      5.70      0.00
   -7   22   15     -2.71      0.00
   -6   22   15    -10.55      0.00
   -5   22   15      1.28      0.00
   -4   22   15     -4.15      0.00
   -3   22   15    -13.88      0.00
   -2   22   15     -0.07      0.00
   -1   22   15     -0.14      0.00
    0   22   15      2.31      0.00
  -11   23   15     -7.93      0.00
  -10   23   15      0.50      0.00
   -9   23   15      2.58      0.00
   -8   23   15     10.80      0.00
   -7   23   15      0.45      0.00
   -6   23   15     -0.53      0.00
   -5   23   15      1.61      0.00
   -4   23   15      2.25      0.00
   -3   23   15      6.69      0.00
   -2   23   15      4.34      0.00
   -1   23   15      5.80      0.00
    0   23   15     -1.31      0.00
  -12   24   15     -7.22      0.00
  -11   24   15      6.19      0.00
  -10   24   15      1.02      0.00
   -9   24   15     -1.29      0.00
   -8   24   15     -3.22      0.00
   -7   24   15     -0.36      0.00
   -6   24   15     -2.13      0.00
   -5   24   15    -12.47      0.00
   -4   24   15     -2.31      0.00
   -3   24   15      4.25      0.00
   -2   24   15     -1.51      0.00
   -1   24   15      1.15      0.00
    0   24   15      0.34      0.00
  -12   25   15      5.88      0.00
  -11   25   15     -4.17      0.00
  -10   25   15      2.44      0.00
   -9   25   15     -1.26      0.00
   -8   25   15     -0.54      0.00
   -7   25   15     -1.13      0.00
   -6   25   15      1.86      0.00
   -5   25   15     -0.86      0.00
   -4   25   15      1.28      0.00
   -3   25   15      0.20      0.00
   -2   25   15     -0.56      0.00
   -1   25   15      4.36      0.00
    0   25   15      4.20      0.00
  -13   26   15     -3.08      0.00
  -12   26   15     -2.50      0.00
  -11   26   15     10.63      0.00
  -10   26   15     -1.61      0.00
   -9   26   15     -3.06      0.00
   -8   26   15     -2.12      0.00
   -7   26   15     -7.30      0.00
   -6   26   15      2.23      0.00
   -5   26   15     -1.12      0.00
   -4   26   15      4.28      0.00
   -3   26   15     -0.31      0.00
   -2   26   15      2.49      0.00
   -1   26   15     -0.38      0.00
    0   26   15     -2.82      0.00
  -13   27   15      0.69      0.00
  -12   27   15      0.68      0.00
  -11   27   15      3.12      0.00
  -10   27   15     -3.10      0.00
   -9   27   15      2.14      0.00
   -8   27   15     -0.36      0.00
   -7   27   15     -2.34      0.00
   -6   27   15      1.38      0.00
   -5   27   15     -5.47      0.00
   -4   27   15     -5.45      0.00
   -3   27   15     -3.31      0.00
   -2   27   15     -0.13      0.00
  -14   28   15      4.43      0.00
  -13   28   15      0.42      0.00
  -12   28   15      1.06      0.00
  -11   28   15      2.65      0.00
  -10   28   15      2.93      0.00
   -9   28   15      0.11      0.00
   -8   28   15      3.66      0.00
   -7   28   15      4.71      0.00
   -6   28   15      2.23      0.00
   -5   28   15     -6.90      0.00
   -4   28   15     -4.66      0.00
  -14   29   15      1.06      0.00
  -13   29   15      0.21      0.00
  -12   29   15     -1.53      0.00
  -11   29   15      5.34      0.00
  -10   29   15     -0.25      0.00
   -9   29   15      1.08      0.00
   -8   29   15     -2.30      0.00
  -15   30   15     -3.66      0.00
  -14   30   15      6.18      0.00
  -13   30   15     -2.02      0.00
    0    0   16    -12.55      0.00
    0    1   16      6.59      0.00
   -1    2   16      9.07      0.00
    0    2   16    -12.36      0.00
   -1    3   16      6.56      0.00
    0    3   16      0.87      0.00
   -2    4   16      1.20      0.00
   -1    4   16      1.15      0.00
    0    4   16     -2.55      0.00
   -2    5   16      1.40      0.00
   -1    5   16     -9.80      0.00
    0    5   16     -0.68      0.00
   -3    6   16      3.85      0.00
   -2    6   16     -4.35      0.00
   -1    6   16     -4.02      0.00
    0    6   16      5.21      0.00
   -3    7   16      6.46      0.00
   -2    7   16      2.87      0.00
   -1    7   16    -11.25      0.00
    0    7   16      3.75      0.00
   -4    8   16      7.61      0.00
   -3    8   16      1.71      0.00
   -2    8   16      5.77      0.00
   -1    8   16     -1.59      0.00
    0    8   16      2.27      0.00
   -4    9   16      1.24      0.00
   -3    9   16     -0.70      0.00
   -2    9   16      3.02      0.00
   -1    9   16      8.42      0.00
    0    9   16     10.16      0.00
   -5   10   16      1.74      0.00
   -4   10   16      1.29      0.00
   -3   10   16     -0.38      0.00
   -2   10   16     -0.45      0.00
   -1   10   16     -5.54      0.00
    0   10   16      3.64      0.00
   -5   11   16     -0.29      0.00
   -4   11   16     13.44      0.00
   -3   11   16     -2.00      0.00
   -2   11   16      8.61      0.00
   -1   11   16     -3.02      0.00
    0   11   16      1.37      0.00
   -6   12   16     -6.45      0.00
   -5   12   16      1.12      0.00
   -4   12   16     -7.36      0.00
   -3   12   16      1.63      0.00
   -2   12   16     -1.65      0.00
   -1   12   16     -1.66      0.00
    0   12   16     -5.31      0.00
   -6   13   16      3.13      0.00
   -5   13   16     -0.81      0.00
   -4   13   16     -1.84      0.00
   -3   13   16      1.16      0.00
   -2   13   16      2.52      0.00
   -1   13   16     -0.34      0.00
    0   13   16     -2.84      0.00
   -7   14   16     -2.90      0.00
   -6   14   16     -0.14      0.00
   -5   14   16      0.85      0.00
   -4   14   16     -3.84      0.00
   -3   14   16      3.68      0.00
   -2   14   16      1.58      0.00
   -1   14   16      9.54      0.00
    0   14   16     -2.00      0.00
   -7   15   16      1.07      0.00
   -6   15   16      3.03      0.00
   -5   15   16      1.81      0.00
   -4   15   16     -0.04      0.00
   -3   15   16      1.09      0.00
   -2   15   16     -8.09      0.00
   -1   15   16      4.48      0.00
    0   15   16     -6.51      0.00
   -8   16   16      1.78      0.00
   -7   16   16      6.41      0.00
   -6   16   16     -3.39      0.00
   -5   16   16      3.43      0.00
   -4   16   16      0.03      0.00
   -3   16   16      5.39      0.00
   -2   16   16      4.43      0.00
   -1   16   16      4.48      0.00
    0   16   16      0.67      0.00
   -8   17   16      1.52      0.00
   -7   17   16      2.47      0.00
   -6   17   16     -3.34      0.00
   -5   17   16     12.49      0.00
   -4   17   16     -3.97      0.00
   -3   17   16     -3.72      0.00
   -2   17   16     -6.72      0.00
   -1   17   16     -0.32      0.00
    0   17   16     -2.16      0.00
   -9   18   16      0.53      0.00
   -8   18   16      2.28      0.00
   -7   18   16      2.73      0.00
   -6   18   16     -0.48      0.00
   -5   18   16      4.42      0.00
   -4   18   16      1.46      0.00
   -3   18   16      0.91      0.00
   -2   18   16      0.22      0.00
   -1   18   16      6.19      0.00
    0   18   16      1.21      0.00
   -9   19   16      5.14      0.00
   -8   19   16      1.68      0.00
   -7   19   16     -1.97      0.00
   -6   19   16     -8.90      0.00
   -5   19   16     -1.91      0.00
   -4   19   16     -4.24      0.00
   -3   19   16     -0.12      0.00
   -2   19   16     -6.22      0.00
   -1   19   16     -3.37      0.00
    0   19   16     -1.42      0.00
  -10   20   16     -2.87      0.00
   -9   20   16      4.06      0.00
   -8   20   16      0.95      0.00
   -7   20   16      1.95      0.00
   -6   20   16     -2.37      0.00
   -5   20   16      4.72      0.00
   -4   20   16     -0.72      0.00
   -3   20   16      1.62      0.00
   -2   20   16      3.41      0.00
   -1   20   16     -3.60      0.00
    0   20   16      1.34      0.00
  -10   21   16     -3.81      0.00
   -9   21   16      1.13      0.00
   -8   21   16      5.79      0.00
   -7   21   16     -1.86      0.00
   -6   21   16      1.20      0.00
   -5   21   16      2.86      0.00
   -4   21   16     -2.62      0.00
   -3   21   16     -1.43      0.00
   -2   21   16      7.05      0.00
   -1   21   16     -2.25      0.00
    0   21   16      1.84      0.00
  -11   22   16      2.26      0.00
  -10   22   16     -3.15      0.00
   -9   22   16     -0.54      0.00
   -8   22   16      0.93      0.00
   -7   22   16      1.58      0.00
   -6   22   16      3.36      0.00
   -5   22   16      5.60      0.00
   -4   22   16      1.45      0.00
   -3   22   16      3.12      0.00
   -2   22   16      0.88      0.00
   -1   22   16     -1.26      0.00
    0   22   16     -0.86      0.00
  -11   23   16      3.49      0.00
  -10   23   16      5.05      0.00
   -9   23   16     -6.02      0.00
   -8   23   16      4.00      0.00
   -7   23   16     -1.89      0.00
   -6   23   16     -4.75      0.00
   -5   23   16     -3.47      0.00
   -4   23   16     -3.48      0.00
   -3   23   16      1.34      0.00
   -2   23   16      5.22      0.00
   -1   23   16     -2.95      0.00
    0   23   16      5.86      0.00
  -12   24   16     -1.77      0.00
  -11   24   16     -3.53      0.00
  -10   24   16     -0.31      0.00
   -9   24   16      3.57      0.00
   -8   24   16      1.78      0.00
   -7   24   16      2.81      0.00
   -6   24   16      3.89      0.00
   -5   24   16      2.44      0.00
   -4   24   16      1.94      0.00
   -3   24   16      7.97      0.00
   -2   24   16     10.09      0.00
   -1   24   16      2.41      0.00
  -12   25   16     -0.44      0.00
  -11   25   16      4.55      0.00
  -10   25   16      1.41      0.00
   -9   25   16     -1.64      0.00
   -8   25   16      2.89      0.00
   -7   25   16     -7.19      0.00
   -6   25   16      2.43      0.00
   -5   25   16     -7.17      0.00
   -4   25   16     -5.08      0.00
   -3   25   16     -7.05      0.00
  -13   26   16     -6.40      0.00
  -12   26   16      4.68      0.00
  -11   26   16     -3.18      0.00
  -10   26   16      7.65      0.00
   -9   26   16     -4.28      0.00
   -8   26   16      2.71      0.00
   -7   26   16      2.02      0.00
   -6   26   16      4.90      0.00
  -13   27   16      5.32      0.00
  -12   27   16     10.18      0.00
  -11   27   16      7.13      0.00
  -10   27   16     -4.40      0.00
    0    0   17     19.95      0.00
    0    1   17     -4.16      0.00
   -1    2   17      1.75      0.00
    0    2   17     10.51      0.00
   -1    3   17     -1.96      0.00
    0    3   17      2.80      0.00
   -2    4   17      3.11      0.00
   -1    4   17     -0.41      0.00
    0    4   17      4.70      0.00
   -2    5   17      4.75      0.00
   -1    5   17      0.87      0.00
    0    5   17      1.13      0.00
   -3    6   17      1.10      0.00
   -2    6   17     -2.22      0.00
   -1    6   17      0.37      0.00
    0    6   17      1.28      0.00
   -3    7   17      6.31      0.00
   -2    7   17      4.32      0.00
   -1    7   17      1.88      0.00
    0    7   17     -1.72      0.00
   -4    8   17      1.84      0.00
   -3    8   17     -3.22      0.00
   -2    8   17      4.73      0.00
   -1    8   17      1.13      0.00
    0    8   17     -3.27      0.00
   -4    9   17      3.10      0.00
   -3    9   17      4.80      0.00
   -2    9   17     -3.55      0.00
   -1    9   17     16.89      0.00
    0    9   17     -3.58      0.00
   -5   10   17     -3.69      0.00
   -4   10   17      3.92      0.00
   -3   10   17     -7.29      0.00
   -2   10   17      0.31      0.00
   -1   10   17     -2.25      0.00
    0   10   17     -2.88      0.00
   -5   11   17      2.30      0.00
   -4   11   17     -3.83      0.00
   -3   11   17      3.78      0.00
   -2   11   17     -4.37      0.00
   -1   11   17     -1.38      0.00
    0   11   17     -1.27      0.00
   -6   12   17      5.42      0.00
   -5   12   17     -3.00      0.00
   -4   12   17      4.97      0.00
   -3   12   17     -0.91      0.00
   -2   12   17     -1.42      0.00
   -1   12   17     -1.50      0.00
    0   12   17     -1.40      0.00
   -6   13   17     -5.18      0.00
   -5   13   17     -5.12      0.00
   -4   13   17     -4.04      0.00
   -3   13   17      0.24      0.00
   -2   13   17     -3.78      0.00
   -1   13   17     -1.25      0.00
    0   13   17     -1.21      0.00
   -7   14   17     -9.02      0.00
   -6   14   17     12.54      0.00
   -5   14   17      2.45      0.00
   -4   14   17      1.72      0.00
   -3   14   17      1.20      0.00
   -2   14   17     -2.40      0.00
   -1   14   17      0.45      0.00
    0   14   17     -0.33      0.00
   -7   15   17     -1.96      0.00
   -6   15   17      1.20      0.00
   -5   15   17      2.84      0.00
   -4   15   17     -2.82      0.00
   -3   15   17      0.93      0.00
   -2   15   17     -1.84      0.00
   -1   15   17     -3.33      0.00
    0   15   17      1.03      0.00
   -8   16   17      3.61      0.00
   -7   16   17      3.44      0.00
   -6   16   17     -0.50      0.00
   -5   16   17     -2.83      0.00
   -4   16   17      2.95      0.00
   -3   16   17     -0.04      0.00
   -2   16   17     -0.28      0.00
   -1   16   17     -1.36      0.00
    0   16   17     -3.52      0.00
   -8   17   17      4.42      0.00
   -7   17   17      1.47      0.00
   -6   17   17      3.40      0.00
   -5   17   17      5.14      0.00
   -4   17   17     -2.18      0.00
   -3   17   17      3.85      0.00
   -2   17   17     -3.06      0.00
   -1   17   17      1.42      0.00
    0   17   17      0.09      0.00
   -9   18   17     -5.10      0.00
   -8   18   17      0.30      0.00
   -7   18   17      3.44      0.00
   -6   18   17      1.89      0.00
   -5   18   17      1.57      0.00
   -4   18   17     -2.09      0.00
   -3   18   17     -1.70      0.00
   -2   18   17     -3.97      0.00
   -1   18   17      1.07      0.00
    0   18   17      4.33      0.00
   -9   19   17      0.93      0.00
   -8   19   17     -0.81      0.00
   -7   19   17      4.05      0.00
   -6   19   17      0.00      0.00
   -5   19   17      1.73      0.00
   -4   19   17     -2.54      0.00
   -3   19   17      0.44      0.00
   -2   19   17      2.18      0.00
   -1   19   17     -6.90      0.00
    0   19   17     -3.19      0.00
  -10   20   17      2.04      0.00
   -9   20   17     -2.82      0.00
   -8   20   17     -2.05      0.00
   -7   20   17      4.03      0.00
   -6   20   17      2.70      0.00
   -5   20   17     -2.89      0.00
   -4   20   17     -4.63      0.00
   -3   20   17     -1.46      0.00
   -2   20   17      2.64      0.00
  -10   21   17     -1.42      0.00
   -9   21   17      5.34      0.00
   -8   21   17      0.72      0.00
   -7   21   17      5.96      0.00
   -6   21   17      2.95      0.00
   -5   21   17     -0.02      0.00
   -4   21   17     10.63      0.00
  -11   22   17     -1.17      0.00
  -10   22   17      1.16      0.00
   -9   22   17     -2.02      0.00
   -8   22   17      0.63      0.00
   -7   22   17     -7.34      0.00
   -6   22   17      2.71      0.00
   -5   22   17      1.25      0.00
   -4   22   17     -5.80      0.00
  -11   23   17     -0.72      0.00
  -10   23   17      1.29      0.00
   -9   23   17     -6.98      0.00
   -8   23   17      2.30      0.00
   -7   23   17      5.07      0.00
    0    0   18      2.38      0.00
    0    1   18      4.95      0.00
   -1    2   18      1.59      0.00
    0    2   18     -4.09      0.00
   -1    3   18      2.96      0.00
    0    3   18     -1.42      0.00
   -2    4   18      2.15      0.00
   -1    4   18      1.61      0.00
    0    4   18      0.65      0.00
   -2    5   18      1.05      0.00
   -1    5   18      1.37      0.00
    0    5   18     -5.07      0.00
   -3    6   18      1.50      0.00
   -2    6   18      5.35      0.00
   -1    6   18      1.97      0.00
    0    6   18      0.55      0.00
   -3    7   18      1.16      0.00
   -2    7   18      5.85      0.00
   -1    7   18      1.05      0.00
    0    7   18      4.26      0.00
   -4    8   18     -3.93      0.00
   -3    8   18      3.70      0.00
   -2    8   18     -1.40      0.00
   -1    8   18      4.49      0.00
    0    8   18     -0.32      0.00
   -4    9   18     -7.16      0.00
   -3    9   18      0.47      0.00
   -2    9   18     -2.44      0.00
   -1    9   18     -2.75      0.00
    0    9   18      1.25      0.00
   -5   10   18      2.30      0.00
   -4   10   18     -1.98      0.00
   -3   10   18      2.74      0.00
   -2   10   18      0.79      0.00
   -1   10   18     -2.51      0.00
    0   10   18     -0.40      0.00
   -5   11   18     -3.11      0.00
   -4   11   18      0.00      0.00
   -3   11   18     -3.32      0.00
   -2   11   18     -0.15      0.00
   -1   11   18     -1.87      0.00
    0   11   18     -2.90      0.00
   -6   12   18      2.15      0.00
   -5   12   18      0.96      0.00
   -4   12   18      0.61      0.00
   -3   12   18      6.89      0.00
   -2   12   18     -2.40      0.00
   -1   12   18     -4.76      0.00
    0   12   18     -5.44      0.00
   -6   13   18     -2.63      0.00
   -5   13   18      5.38      0.00
   -4   13   18      2.67      0.00
   -3   13   18     -2.05      0.00
   -2   13   18     -2.37      0.00
   -1   13   18     -4.95      0.00
    0   13   18      2.76      0.00
   -7   14   18     -4.89      0.00
   -6   14   18     -1.90      0.00
   -5   14   18      5.09      0.00
   -4   14   18     -4.70      0.00
   -3   14   18     -3.71      0.00
   -2   14   18     -1.15      0.00
   -1   14   18     -5.71      0.00
    0   14   18      0.64      0.00
   -7   15   18      0.42      0.00
   -6   15   18      6.88      0.00
   -5   15   18      0.44      0.00
   -4   15   18      4.64      0.00
   -3   15   18      0.98      0.00
   -2   15   18      0.95      0.00
   -1   15   18     -6.54      0.00
   -8   16   18    -12.41      0.00
   -7   16   18      2.57      0.00
   -6   16   18     -0.62      0.00
   -5   16   18     -2.02      0.00
   -4   16   18      7.17      0.00
   -3   16   18     -1.41      0.00
   -8   17   18      1.95      0.00
   -7   17   18     -0.92      0.00
   -6   17   18      8.57      0.00
   -2    4   19     -5.08      0.00
   -1    4   19     -0.74      0.00
   -2    5   19     -2.59      0.00
   -1    5   19      6.70      0.00
    0    5   19      6.29      0.00
   -3    6   19      1.66      0.00
   -2    6   19     -3.48      0.00
   -1    6   19      5.60      0.00
    0    6   19      7.90      0.00
   -3    7   19     -2.81      0.00
   -2    7   19     -0.87      0.00
   -1    7   19     -0.74      0.00
    0    7   19      0.79      0.00
   -4    8   19     -4.38      0.00
   -3    8   19     -0.54      0.00
   -2    8   19     -0.27      0.00
   -1    8   19      1.16      0.00
    0    8   19      0.02      0.00
   -4    9   19      4.96      0.00
   -3    9   19     -3.21      0.00
   -2    9   19      0.79      0.00
    0    1    0    164.37      0.00
   -1    2    0     51.78      0.00
    0    2    0     -5.51      0.00
    0    3    0    124.42      0.00
   -2    4    0     74.53      0.00
    0    4    0    -51.05      0.00
   -3    6    0     54.81      0.00
   -1   41    0     -1.64      0.00
    0   41    0      1.79      0.00
   -3   42    0     -1.66      0.00
   -2   42    0      2.31      0.00
   -5   43    0     -0.66      0.00
   -4   43    0      2.73      0.00
   -8   44    0     -3.92      0.00
   -7   44    0      0.04      0.00
  -22   45    0      2.02      0.00
  -21   45    0     -3.10      0.00
  -20   45    0      0.83      0.00
  -16   45    0     -1.62      0.00
  -15   45    0      3.05      0.00
  -14   45    0     -1.22      0.00
  -13   45    0      1.53      0.00
  -12   45    0      0.49      0.00
  -11   45    0     -1.32      0.00
  -10   45    0      0.72      0.00
  -23   46    0      0.61      0.00
  -22   46    0      2.21      0.00
  -21   46    0      0.98      0.00
  -20   46    0      2.22      0.00
  -19   46    0     -3.70      0.00
  -18   46    0      2.81      0.00
  -17   46    0     -2.41      0.00
  -16   46    0     -2.20      0.00
  -15   46    0      3.83      0.00
  -14   46    0     -2.97      0.00
  -13   46    0      1.24      0.00
    0    0    1    -13.88      0.00
    0    2    1    -88.65      0.00
    0    3    1    -10.12      0.00
   -1   41    1     -3.08      0.00
    0   41    1     -0.58      0.00
   -3   42    1      0.77      0.00
   -2   42    1     -0.01      0.00
   -5   43    1      1.38      0.00
   -8   44    1      1.23      0.00
   -7   44    1     -1.53      0.00
  -14   45    1     -1.30      0.00
  -13   45    1     -1.79      0.00
  -12   45    1      0.91      0.00
  -11   45    1      0.45      0.00
  -10   45    1     -0.51      0.00
  -23   46    1     -0.10      0.00
  -22   46    1      2.45      0.00
  -21   46    1      2.55      0.00
  -20   46    1      0.64      0.00
  -19   46    1      0.78      0.00
  -18   46    1      1.90      0.00
  -17   46    1      1.72      0.00
  -16   46    1     -1.22      0.00
  -15   46    1     -1.22      0.00
  -14   46    1     -0.54      0.00
  -13   46    1      0.24      0.00
   -1   41    2      0.27      0.00
   -3   42    2     -1.46      0.00
   -6   43    2      0.24      0.00
   -5   43    2      0.69      0.00
   -8   44    2      2.12      0.00
   -7   44    2     -2.24      0.00
  -12   45    2      0.23      0.00
  -11   45    2      3.30      0.00
  -10   45    2      0.09      0.00
  -23   46    2      2.55      0.00
  -17   46    2      2.62      0.00
  -16   46    2     -3.16      0.00
  -15   46    2      4.40      0.00
  -14   46    2     -1.08      0.00
   -2   41    3     -1.87      0.00
   -1   41    3      2.09      0.00
   -4   42    3     -0.59      0.00
   -3   42    3     -1.20      0.00
   -6   43    3     -0.53      0.00
   -9   44    3     -0.86      0.00
   -8   44    3     -0.30      0.00
  -13   45    3     -0.23      0.00
  -12   45    3      1.85      0.00
  -11   45    3      1.10      0.00
  -23   46    3      1.37      0.00
  -19   46    3      2.81      0.00
  -18   46    3     -3.01      0.00
  -17   46    3      1.80      0.00
  -16   46    3      0.83      0.00
  -15   46    3      3.53      0.00
   -4    8    4     -8.30      0.00
    0   40    4     -2.72      0.00
   -2   41    4     -1.13      0.00
   -5   42    4      1.19      0.00
   -4   42    4     -1.47      0.00
   -7   43    4      1.55      0.00
   -6   43    4      0.98      0.00
  -11   44    4     -1.63      0.00
  -10   44    4      1.55      0.00
   -9   44    4      0.75      0.00
  -15   45    4     -0.22      0.00
  -14   45    4     -0.72      0.00
  -13   45    4     -2.30      0.00
  -23   46    4     -2.82      0.00
  -22   46    4     -2.06      0.00
  -21   46    4     -3.16      0.00
  -20   46    4      1.20      0.00
  -19   46    4     -3.90      0.00
  -18   46    4      1.73      0.00
  -17   46    4      3.11      0.00
   -1   40    5     -0.31      0.00
   -3   41    5      3.55      0.00
   -6   42    5     -2.90      0.00
   -5   42    5     -1.84      0.00
   -9   43    5     -0.83      0.00
   -8   43    5     -2.33      0.00
  -12   44    5      0.04      0.00
  -11   44    5     -1.80      0.00
  -18   45    5      1.57      0.00
  -17   45    5      0.84      0.00
  -16   45    5     -4.00      0.00
  -15   45    5     -1.99      0.00
  -23   46    5     -2.32      0.00
  -22   46    5      1.51      0.00
    0   39    6     -4.88      0.00
   -3   40    6      0.65      0.00
   -2   40    6     -3.19      0.00
   -5   41    6      6.60      0.00
   -4   41    6     -1.05      0.00
   -8   42    6      0.91      0.00
   -7   42    6     -0.52      0.00
  -11   43    6      1.21      0.00
  -10   43    6     -0.98      0.00
   -9   43    6      0.59      0.00
  -15   44    6      1.56      0.00
  -14   44    6     -0.27      0.00
  -13   44    6     -0.33      0.00
  -22   45    6     -0.45      0.00
  -21   45    6     -1.53      0.00
  -20   45    6      0.13      0.00
  -19   45    6     -0.98      0.00
  -18   45    6      0.43      0.00
    0   38    7     -0.70      0.00
   -2   39    7     -1.87      0.00
   -1   39    7      2.09      0.00
   -4   40    7     -1.93      0.00
   -7   41    7      4.13      0.00
   -6   41    7     -3.23      0.00
  -10   42    7     -1.16      0.00
   -9   42    7     -1.37      0.00
  -14   43    7      2.07      0.00
  -13   43    7      0.38      0.00
  -12   43    7      0.45      0.00
  -22   44    7     -1.09      0.00
  -21   44    7      2.00      0.00
  -20   44    7     -1.23      0.00
  -19   44    7      0.79      0.00
  -18   44    7     -2.46      0.00
  -17   44    7      2.83      0.00
  -16   44    7     -2.12      0.00
    0   37    8      2.09      0.00
   -2   38    8     -2.34      0.00
   -1   38    8     -0.19      0.00
   -4   39    8      0.18      0.00
   -3   39    8     -2.56      0.00
   -6   40    8     -1.14      0.00
   -5   40    8      2.08      0.00
  -10   41    8     -3.57      0.00
   -9   41    8      6.12      0.00
   -8   41    8     -4.59      0.00
  -14   42    8     -1.54      0.00
  -13   42    8     -0.60      0.00
  -12   42    8     -0.42      0.00
  -11   42    8      0.57      0.00
  -21   43    8     -1.95      0.00
  -20   43    8      0.12      0.00
  -19   43    8     -2.97      0.00
  -18   43    8      0.76      0.00
  -17   43    8     -0.39      0.00
  -16   43    8      1.92      0.00
    0    0    9    -14.66      0.00
   -2   37    9      2.59      0.00
   -1   37    9     -0.23      0.00
   -4   38    9     -2.38      0.00
   -3   38    9      1.08      0.00
   -6   39    9     -3.06      0.00
   -5   39    9     -1.04      0.00
  -10   40    9     -3.32      0.00
   -9   40    9      4.00      0.00
   -8   40    9     -2.56      0.00
  -14   41    9      0.41      0.00
  -13   41    9      2.09      0.00
  -12   41    9     -2.75      0.00
  -11   41    9      3.64      0.00
  -21   42    9      3.01      0.00
  -20   42    9      2.32      0.00
  -19   42    9      2.37      0.00
  -18   42    9      2.47      0.00
  -17   42    9      1.76      0.00
  -16   42    9      0.31      0.00
    0   35   10      1.07      0.00
   -2   36   10     -4.03      0.00
   -1   36   10      3.47      0.00
   -4   37   10     -0.19      0.00
   -3   37   10      3.19      0.00
   -7   38   10     -1.63      0.00
   -6   38   10      0.42      0.00
  -10   39   10      0.73      0.00
   -9   39   10      1.51      0.00
   -8   39   10      0.57      0.00
  -15   40   10     -1.00      0.00
  -14   40   10      0.57      0.00
  -13   40   10     -0.43      0.00
  -12   40   10      0.53      0.00
  -20   41   10     -0.20      0.00
  -19   41   10     -1.14      0.00
  -18   41   10      0.69      0.00
  -17   41   10     -4.70      0.00
    0   34   11     -2.55      0.00
   -3   35   11     -0.43      0.00
   -2   35   11      0.72      0.00
   -5   36   11     -0.59      0.00
   -4   36   11     -3.03      0.00
   -8   37   11      1.09      0.00
   -7   37   11      0.36      0.00
   -6   37   11      3.19      0.00
  -12   38   11      0.34      0.00
  -11   38   11     -0.81      0.00
  -10   38   11      0.04      0.00
   -9   38   11     -0.70      0.00
  -19   39   11     -0.51      0.00
  -18   39   11      0.08      0.00
  -17   39   11     -2.60      0.00
  -16   39   11     -0.80      0.00
  -15   39   11     -1.75      0.00
  -14   39   11     -0.59      0.00
  -13   39   11     -1.93      0.00
   -1   33   12     -0.02      0.00
   -4   34   12      3.52      0.00
   -3   34   12      2.48      0.00
   -6   35   12      0.93      0.00
   -5   35   12     -2.17      0.00
  -10   36   12     -2.92      0.00
   -9   36   12      1.85      0.00
   -8   36   12     -2.22      0.00
  -16   37   12     -0.91      0.00
  -15   37   12      0.73      0.00
  -14   37   12     -2.73      0.00
  -13   37   12      3.99      0.00
  -12   37   12     -0.13      0.00
  -11   37   12      2.09      0.00
  -19   38   12      2.61      0.00
  -18   38   12      0.06      0.00
  -17   38   12     -0.35      0.00
   -1   31   13     -1.84      0.00
    0   31   13     -4.03      0.00
   -3   32   13      3.65      0.00
   -2   32   13      3.78      0.00
   -6   33   13     -1.63      0.00
   -5   33   13     -3.58      0.00
   -4   33   13     -0.43      0.00
   -9   34   13      2.78      0.00
   -8   34   13     -2.92      0.00
   -7   34   13      5.12      0.00
  -14   35   13     -3.21      0.00
  -13   35   13      0.43      0.00
  -12   35   13     -0.33      0.00
  -11   35   13      1.76      0.00
  -10   35   13     -0.52      0.00
  -18   36   13     -0.43      0.00
  -17   36   13     -0.55      0.00
  -16   36   13     -1.91      0.00
  -15   36   13      1.68      0.00
   -1   29   14     -2.23      0.00
    0   29   14     -5.62      0.00
   -3   30   14      5.06      0.00
   -2   30   14      0.68      0.00
   -5   31   14     -1.29      0.00
   -4   31   14     -1.02      0.00
   -9   32   14     -2.62      0.00
   -8   32   14      2.24      0.00
   -7   32   14     -1.61      0.00
   -6   32   14      0.66      0.00
  -16   33   14      2.50      0.00
  -15   33   14      0.12      0.00
  -14   33   14     -0.44      0.00
  -13   33   14     -1.62      0.00
  -12   33   14      1.01      0.00
  -11   33   14      0.52      0.00
  -10   33   14     -0.29      0.00
  -17   34   14     -4.13      0.00
  -16   34   14     -1.78      0.00
   -1   27   15      3.10      0.00
    0   27   15     -3.79      0.00
   -3   28   15      3.49      0.00
   -2   28   15     -0.61      0.00
   -7   29   15     -2.52      0.00
   -6   29   15      0.83      0.00
   -5   29   15     -0.32      0.00
   -4   29   15     -0.90      0.00
  -12   30   15      0.90      0.00
  -11   30   15      1.35      0.00
  -10   30   15     -0.45      0.00
   -9   30   15     -1.25      0.00
   -8   30   15     -1.02      0.00
   -7   30   15      0.06      0.00
  -15   31   15      1.99      0.00
  -14   31   15      3.34      0.00
  -13   31   15      0.27      0.00
  -12   31   15      0.99      0.00
  -11   31   15      1.73      0.00
    0   24   16      0.32      0.00
   -2   25   16     -1.54      0.00
   -1   25   16      2.31      0.00
   -5   26   16      1.69      0.00
   -4   26   16     -4.60      0.00
   -3   26   16     -0.73      0.00
   -9   27   16      1.28      0.00
   -8   27   16      1.19      0.00
   -7   27   16      0.93      0.00
   -6   27   16      0.95      0.00
  -14   28   16      3.65      0.00
  -13   28   16     -1.01      0.00
  -12   28   16      0.69      0.00
  -11   28   16      1.31      0.00
  -10   28   16     -0.22      0.00
   -9   28   16     -2.97      0.00
   -1   20   17      0.70      0.00
    0   20   17     -3.04      0.00
   -3   21   17      2.06      0.00
   -2   21   17     -0.61      0.00
   -1   21   17      3.81      0.00
    0   21   17     -1.78      0.00
   -3   22   17      0.52      0.00
   -2   22   17     -1.36      0.00
   -1   22   17      1.59      0.00
   -6   23   17      0.50      0.00
   -5   23   17      2.80      0.00
   -4   23   17     -0.64      0.00
   -3   23   17      1.32      0.00
  -12   24   17      0.70      0.00
  -11   24   17      3.52      0.00
  -10   24   17      0.55      0.00
   -9   24   17      3.31      0.00
   -8   24   17     -0.78      0.00
   -7   24   17      1.87      0.00
   -6   24   17     -2.27      0.00
  -12   25   17      1.80      0.00
  -11   25   17     -0.52      0.00
  -10   25   17     -1.11      0.00
    0   15   18      2.35      0.00
   -2   16   18      1.81      0.00
   -1   16   18     -1.04      0.00
    0   16   18      0.83      0.00
   -5   17   18     -1.77      0.00
   -4   17   18      2.91      0.00
   -3   17   18     -1.46      0.00
   -2   17   18      2.24      0.00
   -1   17   18     -0.31      0.00
    0   17   18     -1.66      0.00
   -9   18   18     -2.95      0.00
   -8   18   18      1.13      0.00
   -7   18   18     -0.40      0.00
   -6   18   18      1.05      0.00
   -5   18   18     -0.80      0.00
   -4   18   18      1.96      0.00
   -3   18   18     -2.03      0.00
   -2   18   18     -1.07      0.00
   -1   18   18     -1.80      0.00
    0   18   18      0.54      0.00
   -9   19   18     -1.09      0.00
   -8   19   18     -2.77      0.00
   -7   19   18     -0.57      0.00
   -6   19   18      0.64      0.00
   -5   19   18     -2.37      0.00
   -4   19   18      1.14      0.00
   -3   19   18      0.26      0.00
   -2   19   18      0.61      0.00
  -10   20   18      3.55      0.00
   -9   20   18      1.10      0.00
   -8   20   18      2.48      0.00
   -7   20   18      0.85      0.00
   -6   20   18      0.55      0.00
   -5   20   18      1.02      0.00
    0    0   19     11.36      0.00
    0    1   19      2.93      0.00
   -1    2   19     -0.68      0.00
    0    2   19      4.09      0.00
   -1    3   19      1.17      0.00
    0    3   19      2.54      0.00
    0    4   19      1.81      0.00
   -1    9   19     -0.34      0.00
    0    9   19      0.81      0.00
   -5   10   19      1.38      0.00
   -4   10   19     -0.17      0.00
   -3   10   19     -0.62      0.00
   -2   10   19      0.36      0.00
   -1   10   19      0.76      0.00
    0   10   19     -0.38      0.00
   -5   11   19      0.49      0.00
   -4   11   19      1.22      0.00
   -3   11   19     -0.31      0.00
   -2   11   19      0.89      0.00
   -1   11   19      0.47      0.00
    0   11   19      1.94      0.00
   -6   12   19     -0.75      0.00
   -5   12   19      2.00      0.00
   -4   12   19      0.11      0.00
   -3   12   19      0.70      0.00
   -2   12   19     -0.06      0.00
   -1   12   19     -0.57      0.00
    0   12   19     -1.83      0.00
   -6   13   19      1.13      0.00
   -5   13   19     -3.52      0.00
   -4   13   19      0.92      0.00
   -3   13   19      0.66      0.00
   -2   13   19      2.64      0.00
   -1   13   19     -0.10      0.00
    0   13   19      1.65      0.00
   -7   14   19      2.92      0.00
   -6   14   19     -1.40      0.00
   -5   14   19      1.55      0.00
   -4   14   19      1.77      0.00
   -3   14   19      1.19      0.00
   -2   14   19     -1.13      0.00
   -7   15   19     -0.69      0.00
   -6   15   19     -1.04      0.00
    0    0    0      0.00      0.00
# SQUEEZE RESULTS
# Note: Data are Listed for all Voids in the P1 Unit Cell
# i.e. Centre of Gravity, Solvent Accessible Volume,
# Recovered number of Electrons in the Void and
# Details about the Squeezed Material
loop_
  _platon_squeeze_void_nr
  _platon_squeeze_void_average_x
  _platon_squeeze_void_average_y
  _platon_squeeze_void_average_z
  _platon_squeeze_void_volume
  _platon_squeeze_void_count_electrons
  _platon_squeeze_void_content
   1 -0.010 -0.007 -0.014     17699      3531 ' '
_platon_squeeze_void_probe_radius                  1.20
_platon_squeeze_details
(replace by semicolon in column 1 when used as .sqf)
TITL NU1000_114P 6/m m m    R = 0.11
CELL   39.2679   39.2679   16.5666     90.00     90.00    120.00
SPGR P6/mmm
# Solvent Accessible Volume =   17758.5
# Electrons Found in S.A.V. =    3504.5
# Note: Atoms in Void as Cxxx and Qxxx all others
C101 0.075 0.039 0.000 !       3.00 eA-3
C102 0.212 0.609-0.006 !       2.50 eA-3
C103 0.041 1.003 0.889 !       2.11 eA-3
C104 0.993 0.018 0.892 !       2.01 eA-3
C105 0.546 0.695-0.002 !       1.84 eA-3
C106 0.546 0.718-0.004 !       1.74 eA-3
C107 0.570 0.422 0.364 !       1.65 eA-3
C108 0.076 0.539 0.720 !       1.62 eA-3
Q109 0.065 0.549 0.717 !       1.59 eA-3
C110 0.423 0.342 0.973 !       1.46 eA-3
C111 0.891 0.999 0.904 !       1.46 eA-3
Q112 0.373 0.930-0.002 !       1.45 eA-3
Q113 0.546 0.499 0.115 !       1.41 eA-3
C114 0.554 0.449 0.360 !       1.38 eA-3
C115 0.231 0.641-0.004 !       1.34 eA-3
Q116 0.614 0.961 0.004 !       1.34 eA-3
Q117 0.510 0.986 0.091 !       1.33 eA-3
C118 1.000 0.997 0.954 !       1.31 eA-3
Q119 0.070 0.532 0.790 !       1.29 eA-3
Q120 0.041 0.523 0.682 !       1.24 eA-3
Q121 0.451 0.024 0.007 !       1.23 eA-3
C122 0.922 0.024 0.883 !       1.19 eA-3
C123 0.547 0.587 0.634 !       1.16 eA-3
C124 0.406 0.320 0.003 !       1.15 eA-3
C125 0.492 0.079 0.406 !       1.15 eA-3
C126 0.467 0.239 0.906 !       1.15 eA-3
C127 1.000 0.998 0.251 !       1.14 eA-3
C128 0.231 0.621 0.016 !       1.14 eA-3
C129 0.076 0.998 0.938 !       1.11 eA-3
C130 0.222 0.663 0.006 !       1.10 eA-3
C131 0.577 0.470 0.372 !       1.09 eA-3
C132 0.584 0.587 0.624 !       1.08 eA-3
C133 0.868 0.999 0.906 !       1.07 eA-3
C134 0.780 0.216 0.910 !       1.07 eA-3
Q135 0.500 0.498 0.657 !       1.05 eA-3
C136 0.932 0.526 0.405 !       1.04 eA-3
C137 0.100 0.015 0.006 !       1.04 eA-3
Q138 0.445 0.488 0.701 !       1.03 eA-3
C139 0.999 0.812-0.001 !       1.03 eA-3
C140 0.068 0.443 0.468 !       1.00 eA-3
C141 0.493 0.411 0.592 !       1.00 eA-3
C142 0.884 0.413 0.610 !       1.00 eA-3
C143 0.781 0.559 0.904 !       1.00 eA-3
C144 1.000 0.781-0.002 !       1.00 eA-3
Q145 0.440 0.473 0.724 !       0.99 eA-3
C146 0.243 0.673-0.002 !       0.98 eA-3
Q147 0.534 1.003 0.388 !       0.97 eA-3
C148 0.022 0.038 0.010 !       0.97 eA-3
C149 0.915 0.984 0.880 !       0.97 eA-3
Q150 0.562 0.055-0.008 !       0.96 eA-3
C151 0.320 0.750 0.005 !       0.96 eA-3
C152 0.805 0.263 0.941 !       0.95 eA-3
C153 0.491 0.249 0.922 !       0.95 eA-3
C154 0.624 0.796 0.334 !       0.93 eA-3
C155 1.002 0.844 0.960 !       0.92 eA-3
C156 0.742 0.187 0.926 !       0.92 eA-3
C157 0.273 0.633 0.707 !       0.91 eA-3
Q158 0.561 0.553 0.627 !       0.91 eA-3
C159 0.165 0.119 0.876 !       0.90 eA-3
C160 0.421 0.712 0.843 !       0.90 eA-3
C161 1.000 0.998 0.187 !       0.90 eA-3
C162 0.838 0.998 0.795 !       0.89 eA-3
Q163 0.340 0.977 0.845 !       0.89 eA-3
C164 0.177 0.822 0.734 !       0.88 eA-3
C165 0.313 0.625 0.003 !       0.88 eA-3
C166 0.577 0.617 0.500 !       0.88 eA-3
C167 0.725 0.218-0.001 !       0.87 eA-3
C168 0.603 0.016 0.654 !       0.87 eA-3
C169 1.000 0.401 0.326 !       0.87 eA-3
C170 0.889 0.398 0.443 !       0.87 eA-3
C171 0.373 0.739 0.664 !       0.86 eA-3
C172 0.140 0.070 0.980 !       0.86 eA-3
C173 0.255 0.643 0.342 !       0.86 eA-3
C174 0.469 0.664 0.004 !       0.86 eA-3
C175 0.860 0.024 0.899 !       0.86 eA-3
C176 0.810 0.193 0.722 !       0.85 eA-3
C177 0.335 0.804 0.003 !       0.85 eA-3
C178 0.985 0.388 0.676 !       0.85 eA-3
C179 0.767 0.380 0.390 !       0.84 eA-3
Q180 0.370 0.827 0.891 !       0.84 eA-3
C181 0.174 0.069-0.005 !       0.84 eA-3
C182 0.155 0.996 0.845 !       0.84 eA-3
C183 0.225 0.227 0.420 !       0.84 eA-3
C184 0.852 0.021 0.854 !       0.83 eA-3
C185 0.885 0.401 0.537 !       0.83 eA-3
C186 0.377 0.134 0.499 !       0.83 eA-3
C187 0.977 0.806 0.922 !       0.83 eA-3
C188 0.601 0.900 0.894 !       0.82 eA-3
C189 0.978 0.863 0.152 !       0.82 eA-3
C190 0.117 0.585 0.609 !       0.82 eA-3
C191 0.853 0.015 0.927 !       0.81 eA-3
C192 0.408 1.001 0.544 !       0.81 eA-3
C193 0.483 0.524 0.373 !       0.81 eA-3
C194 0.046 0.096 0.922 !       0.81 eA-3
Q195 0.532 0.571 0.128 !       0.81 eA-3
C196 0.334 0.531 1.001 !       0.81 eA-3
C197 0.930 0.478 0.336 !       0.80 eA-3
Q198 0.492 0.986 0.715 !       0.80 eA-3
C199 0.174 1.001 0.892 !       0.80 eA-3
(replace by semicolon in column 1 when used as .sqf)
;
_shelx_fab_checksum              20990
loop_
_space_group_symop_operation_xyz
'x, y, z'
'-x, -y, z'
'-y, x-y, z'
'-x+y, -x, z'
'x-y, x, z'
'y, -x+y, z'
'x-y, -y, -z'
'-x, -x+y, -z'
'y, x, -z'
'-y, -x, -z'
'x, x-y, -z'
'-x+y, y, -z'
'-x, -y, -z'
'x, y, -z'
'y, -x+y, -z'
'x-y, x, -z'
'-x+y, -x, -z'
'-y, x-y, -z'
'-x+y, y, z'
'x, x-y, z'
'-y, -x, z'
'y, x, z'
'-x, -x+y, z'
'x-y, -y, z'
loop_
_atom_site_label
_atom_site_type_symbol
_atom_site_fract_x
_atom_site_fract_y
_atom_site_fract_z
_atom_site_U_iso_or_equiv
_atom_site_adp_type
_atom_site_occupancy
_atom_site_site_symmetry_order
_atom_site_calc_flag
_atom_site_refinement_flags_posn
_atom_site_refinement_flags_adp
_atom_site_refinement_flags_occupancy
C1 C 0.49243(14) 0.09362(11) 0.1335(2) 0.0481(11) Uani 1 1 d . . .
C2 C 0.49206(17) 0.12536(12) 0.1837(2) 0.0593(14) Uani 1 1 d . . .
C3 C 0.4625(2) 0.11563(15) 0.2403(3) 0.0757(17) Uani 1 1 d . . .
H1 H 0.442486 0.089670 0.246259 0.091 Uiso 1 1 calc R U .
C4 C 0.4630(2) 0.14506(17) 0.2882(3) 0.095(2) Uani 1 1 d . . .
H2 H 0.443248 0.138428 0.326249 0.114 Uiso 1 1 calc R U .
C5 C 0.4920(2) 0.18361(15) 0.2802(3) 0.084(2) Uani 1 1 d . . .
C6 C 0.5209(2) 0.19293(14) 0.2230(3) 0.084(2) Uani 1 1 d . . .
H3 H 0.540510 0.218980 0.216167 0.101 Uiso 1 1 calc R U .
C7 C 0.5210(2) 0.16380(13) 0.1753(3) 0.0751(17) Uani 1 1 d . . .
H4 H 0.540863 0.170491 0.137524 0.090 Uiso 1 1 calc R U .
C8 C 0.4925(3) 0.18389(18) 0.4593(3) 0.124(3) Uani 1 1 d . . .
H5 H 0.493210 0.163505 0.432087 0.149 Uiso 1 1 calc R U .
C9 C 0.4916(3) 0.21414(17) 0.4135(3) 0.100(3) Uani 1 1 d . . .
C10 C 0.4911(4) 0.24555(18) 0.4561(4) 0.102(4) Uani 1 2 d S T P
C11 C 0.4932(2) 0.21592(17) 0.3292(3) 0.093(2) Uani 1 1 d . . .
C12 C 0.4934(3) 0.24671(16) 0.2898(4) 0.091(3) Uani 1 2 d S T P
H6 H 0.493710 0.246855 0.233673 0.109 Uiso 1 2 calc R U P
O1 O 0.46673(10) 0.05926(8) 0.1482(2) 0.0642(10) Uani 1 1 d . . .
O2 O 0.51888(9) 0.10521(7) 0.08097(15) 0.0455(7) Uani 1 1 d . . .
O3 O 0.47156(14) 0.03602(10) 0.000000 0.0548(13) Uani 1 2 d S T P
O4 O 0.51750(6) 0.03499(12) 0.1074(3) 0.0701(15) Uani 1 2 d S TU P
O5 O 0.39915(12) 0.000000 0.0974(3) 0.0658(13) Uani 1 2 d S TU P
O6 O 0.45847(15) 0.000000 0.2386(2) 0.0723(16) Uani 1 2 d S T P
Zr1 Zr 0.53599(2) 0.07198(2) 0.000000 0.03033(18) Uani 1 4 d S T P
Zr2 Zr 0.45497(2) 0.000000 0.10671(2) 0.03411(16) Uani 1 2 d S T P
loop_
_atom_site_aniso_label
_atom_site_aniso_U_11
_atom_site_aniso_U_22
_atom_site_aniso_U_33
_atom_site_aniso_U_23
_atom_site_aniso_U_13
_atom_site_aniso_U_12
C1 0.086(3) 0.0209(18) 0.038(2) -0.0015(16) 0.014(2) 0.027(2)
C2 0.116(4) 0.034(2) 0.033(2) -0.0100(18) 0.004(2) 0.041(3)
C3 0.142(5) 0.055(3) 0.043(3) -0.001(2) 0.028(3) 0.060(3)
C4 0.199(7) 0.078(4) 0.043(3) 0.004(3) 0.034(4) 0.096(5)
C5 0.205(7) 0.057(3) 0.023(2) 0.000(2) 0.007(3) 0.089(4)
C6 0.170(6) 0.040(3) 0.043(3) -0.009(2) 0.008(3) 0.054(3)
C7 0.137(5) 0.033(2) 0.047(3) -0.010(2) 0.008(3) 0.036(3)
C8 0.317(11) 0.091(4) 0.035(2) -0.008(3) -0.012(4) 0.156(6)
C9 0.260(9) 0.076(4) 0.026(2) 0.000(2) 0.004(4) 0.130(5)
C10 0.263(12) 0.076(3) 0.029(3) -0.002(3) -0.003(5) 0.132(6)
C11 0.220(8) 0.079(4) 0.028(2) -0.002(2) 0.004(3) 0.111(5)
C12 0.221(11) 0.079(3) 0.019(3) 0.002(2) 0.003(4) 0.111(5)
O1 0.089(2) 0.0337(16) 0.0566(19) -0.0095(14) 0.0280(18) 0.0212(16)
O2 0.079(2) 0.0283(13) 0.0283(13) -0.0016(11) 0.0045(14) 0.0264(14)
O3 0.083(3) 0.028(2) 0.0086(15) 0.000 0.000 -0.0056(19)
O4 0.080(3) 0.040(2) 0.076(3) 0.050(2) 0.0249(11) 0.0201(12)
O5 0.0547(19) 0.053(3) 0.089(3) 0.000 0.011(2) 0.0265(13)
O6 0.118(4) 0.053(3) 0.024(2) 0.000 0.020(2) 0.0267(13)
Zr1 0.0480(3) 0.0152(3) 0.0169(3) 0.000 0.000 0.00758(14)
Zr2 0.0494(2) 0.0213(2) 0.0222(2) 0.000 0.00757(17) 0.01067(11)
loop_
_atom_type_symbol
_atom_type_description
_atom_type_scat_dispersion_real
_atom_type_scat_dispersion_imag
_atom_type_scat_source
C C 0.0181 0.0091 'International Tables Vol C Tables 4.2.6.8 and 6.1.1.4'
O O 0.0492 0.0322 'International Tables Vol C Tables 4.2.6.8 and 6.1.1.4'
Zr Zr -0.1862 2.2449 'International Tables Vol C Tables 4.2.6.8 and 6.1.1.4'
H H 0.0000 0.0000 'International Tables Vol C Tables 4.2.6.8 and 6.1.1.4'
loop_
_geom_angle_atom_site_label_1
_geom_angle_atom_site_label_2
_geom_angle_atom_site_label_3
_geom_angle
_geom_angle_site_symmetry_1
_geom_angle_site_symmetry_3
O1 C1 O2 127.4(3) . .
O1 C1 C2 117.0(4) . .
O2 C1 C2 115.6(4) . .
C7 C2 C3 119.4(4) . .
C7 C2 C1 120.7(5) . .
C3 C2 C1 119.9(4) . .
C2 C3 C4 119.5(5) . .
C5 C4 C3 121.4(6) . .
C4 C5 C6 118.5(4) . .
C4 C5 C11 123.0(6) . .
C6 C5 C11 118.5(5) . .
C5 C6 C7 120.8(5) . .
C2 C7 C6 120.4(6) . .
C8 C8 C9 122.1(3) 14_556 .
C11 C9 C8 123.6(4) . .
C11 C9 C10 118.0(4) . .
C8 C9 C10 118.3(4) . .
C9 C10 C9 120.8(6) . 20
C9 C10 C10 119.6(3) . 14_556
C9 C10 C10 119.6(3) 20 14_556
C12 C11 C9 120.0(4) . .
C12 C11 C5 118.4(4) . .
C9 C11 C5 121.4(4) . .
C11 C12 C11 123.1(6) . 20
C1 O1 Zr2 134.6(3) . .
C1 O2 Zr1 130.7(2) . .
Zr2 O3 Zr2 110.51(16) 14 .
Zr2 O3 Zr1 107.20(16) 14 .
Zr2 O3 Zr1 107.19(16) . .
Zr2 O4 Zr2 112.12(19) . 2_655
Zr2 O4 Zr1 108.53(15) . .
Zr2 O4 Zr1 108.53(15) 2_655 .
O4 Zr1 O4 109.5(3) 14 .
O4 Zr1 O3 71.26(9) 14 19_655
O4 Zr1 O3 71.25(9) . 19_655
O4 Zr1 O3 71.25(9) 14 .
O4 Zr1 O3 71.25(9) . .
O3 Zr1 O3 112.3(2) 19_655 .
O4 Zr1 O2 142.68(8) 14 19_655
O4 Zr1 O2 78.37(13) . 19_655
O3 Zr1 O2 77.63(12) 19_655 19_655
O3 Zr1 O2 141.89(7) . 19_655
O4 Zr1 O2 78.37(13) 14 12_655
O4 Zr1 O2 142.68(8) . 12_655
O3 Zr1 O2 77.63(12) 19_655 12_655
O3 Zr1 O2 141.89(7) . 12_655
O2 Zr1 O2 75.23(14) 19_655 12_655
O4 Zr1 O2 142.67(8) 14 .
O4 Zr1 O2 78.37(13) . .
O3 Zr1 O2 141.89(7) 19_655 .
O3 Zr1 O2 77.63(12) . .
O2 Zr1 O2 74.11(16) 19_655 .
O2 Zr1 O2 118.11(14) 12_655 .
O4 Zr1 O2 78.36(13) 14 14
O4 Zr1 O2 142.67(8) . 14
O3 Zr1 O2 141.89(7) 19_655 14
O3 Zr1 O2 77.63(12) . 14
O2 Zr1 O2 118.11(14) 19_655 14
O2 Zr1 O2 74.11(16) 12_655 14
O2 Zr1 O2 75.23(14) . 14
O4 Zr1 Zr2 35.29(7) 14 13_655
O4 Zr1 Zr2 90.51(12) . 13_655
O3 Zr1 Zr2 35.97(6) 19_655 13_655
O3 Zr1 Zr2 91.73(10) . 13_655
O2 Zr1 Zr2 111.32(8) 19_655 13_655
O2 Zr1 Zr2 75.33(7) 12_655 13_655
O2 Zr1 Zr2 166.55(7) . 13_655
O2 Zr1 Zr2 110.85(7) 14 13_655
O4 Zr1 Zr2 90.51(12) 14 2_655
O4 Zr1 Zr2 35.28(7) . 2_655
O3 Zr1 Zr2 35.97(6) 19_655 2_655
O3 Zr1 Zr2 91.73(10) . 2_655
O2 Zr1 Zr2 75.33(7) 19_655 2_655
O2 Zr1 Zr2 111.32(8) 12_655 2_655
O2 Zr1 Zr2 110.85(7) . 2_655
O2 Zr1 Zr2 166.55(7) 14 2_655
Zr2 Zr1 Zr2 60.692(15) 13_655 2_655
O4 Zr1 Zr2 90.51(12) 14 .
O4 Zr1 Zr2 35.28(7) . .
O3 Zr1 Zr2 91.73(10) 19_655 .
O3 Zr1 Zr2 35.97(6) . .
O2 Zr1 Zr2 110.85(7) 19_655 .
O2 Zr1 Zr2 166.55(7) 12_655 .
O2 Zr1 Zr2 75.33(7) . .
O2 Zr1 Zr2 111.31(8) 14 .
Zr2 Zr1 Zr2 91.224(16) 13_655 .
Zr2 Zr1 Zr2 60.715(16) 2_655 .
O4 Zr1 Zr2 35.28(7) 14 14
O4 Zr1 Zr2 90.51(12) . 14
O3 Zr1 Zr2 91.73(10) 19_655 14
O3 Zr1 Zr2 35.97(6) . 14
O2 Zr1 Zr2 166.55(7) 19_655 14
O2 Zr1 Zr2 110.85(7) 12_655 14
O2 Zr1 Zr2 111.31(8) . 14
O2 Zr1 Zr2 75.33(7) 14 14
Zr2 Zr1 Zr2 60.716(16) 13_655 14
Zr2 Zr1 Zr2 91.224(16) 2_655 14
Zr2 Zr1 Zr2 60.693(15) . 14
O4 Zr2 O4 67.87(19) . 2_655
O4 Zr2 O3 73.02(16) . .
O4 Zr2 O3 110.1(2) 2_655 .
O4 Zr2 O3 110.1(2) . 7
O4 Zr2 O3 73.03(16) 2_655 7
O3 Zr2 O3 69.41(16) . 7
O4 Zr2 O6 86.70(19) . .
O4 Zr2 O6 86.70(19) 2_655 .
O3 Zr2 O6 145.26(8) . .
O3 Zr2 O6 145.25(8) 7 .
O4 Zr2 O5 145.89(9) . .
O4 Zr2 O5 145.89(9) 2_655 .
O3 Zr2 O5 85.21(18) . .
O3 Zr2 O5 85.21(18) 7 .
O6 Zr2 O5 97.6(2) . .
O4 Zr2 O1 75.88(14) . .
O4 Zr2 O1 139.44(13) 2_655 .
O3 Zr2 O1 74.47(12) . .
O3 Zr2 O1 139.09(13) 7 .
O6 Zr2 O1 73.35(11) . .
O5 Zr2 O1 73.11(11) . .
O4 Zr2 O1 139.44(13) . 24
O4 Zr2 O1 75.88(14) 2_655 24
O3 Zr2 O1 139.09(13) . 24
O3 Zr2 O1 74.47(12) 7 24
O6 Zr2 O1 73.35(11) . 24
O5 Zr2 O1 73.11(11) . 24
O1 Zr2 O1 128.03(16) . 24
O4 Zr2 Zr1 88.51(12) . 13_655
O4 Zr2 Zr1 36.19(11) 2_655 13_655
O3 Zr2 Zr1 89.78(11) . 13_655
O3 Zr2 Zr1 36.83(12) 7 13_655
O6 Zr2 Zr1 118.19(10) . 13_655
O5 Zr2 Zr1 117.94(9) . 13_655
O1 Zr2 Zr1 160.37(8) . 13_655
O1 Zr2 Zr1 71.60(8) 24 13_655
O4 Zr2 Zr1 36.19(11) . .
O4 Zr2 Zr1 88.51(12) 2_655 .
O3 Zr2 Zr1 36.83(12) . .
O3 Zr2 Zr1 89.78(11) 7 .
O6 Zr2 Zr1 118.19(10) . .
O5 Zr2 Zr1 117.94(9) . .
O1 Zr2 Zr1 71.60(8) . .
O1 Zr2 Zr1 160.37(8) 24 .
Zr1 Zr2 Zr1 88.776(16) 13_655 .
O4 Zr2 Zr2 90.31(13) . 14
O4 Zr2 Zr2 90.31(13) 2_655 14
O3 Zr2 Zr2 34.74(8) . 14
O3 Zr2 Zr2 34.75(8) 7 14
O6 Zr2 Zr2 176.40(16) . 14
O5 Zr2 Zr2 85.97(14) . 14
O1 Zr2 Zr2 107.86(9) . 14
O1 Zr2 Zr2 107.86(9) 24 14
Zr1 Zr2 Zr2 59.653(7) 13_655 14
Zr1 Zr2 Zr2 59.654(7) . 14
O4 Zr2 Zr2 33.94(9) . 2_655
O4 Zr2 Zr2 33.94(9) 2_655 2_655
O3 Zr2 Zr2 91.48(14) . 2_655
O3 Zr2 Zr2 91.48(14) 7 2_655
O6 Zr2 Zr2 86.40(16) . 2_655
O5 Zr2 Zr2 175.97(14) . 2_655
O1 Zr2 Zr2 108.23(10) . 2_655
O1 Zr2 Zr2 108.23(10) 24 2_655
Zr1 Zr2 Zr2 59.642(8) 13_655 2_655
Zr1 Zr2 Zr2 59.643(8) . 2_655
Zr2 Zr2 Zr2 90.000(1) 14 2_655
loop_
_geom_bond_atom_site_label_1
_geom_bond_atom_site_label_2
_geom_bond_distance
_geom_bond_site_symmetry_2
C1 O1 1.240(5) .
C1 O2 1.253(5) .
C1 C2 1.505(5) .
C2 C7 1.369(7) .
C2 C3 1.390(7) .
C3 C4 1.393(6) .
C4 C5 1.372(9) .
C5 C6 1.381(8) .
C5 C11 1.487(6) .
C6 C7 1.392(6) .
C8 C8 1.350(10) 14_556
C8 C9 1.426(6) .
C9 C11 1.398(6) .
C9 C10 1.429(5) .
C10 C10 1.454(13) 14_556
C11 C12 1.370(5) .
O1 Zr2 2.242(3) .
O2 Zr1 2.198(3) .
O3 Zr2 2.151(2) 14
O3 Zr2 2.151(2) .
O3 Zr1 2.196(4) .
O4 Zr2 2.132(2) .
O4 Zr2 2.132(2) 2_655
O4 Zr1 2.179(4) .
O5 Zr2 2.197(5) .
O6 Zr2 2.189(4) .
Zr1 Zr2 3.4992(5) 13_655
Zr1 Zr2 3.4992(5) 2_655
Zr1 Zr2 3.4992(5) .
Zr1 Zr2 3.4992(5) 14
Zr2 Zr2 3.5358(8) 14
Zr2 Zr2 3.5369(10) 2_655
loop_
_geom_torsion_atom_site_label_1
_geom_torsion_atom_site_label_2
_geom_torsion_atom_site_label_3
_geom_torsion_atom_site_label_4
_geom_torsion
_geom_torsion_site_symmetry_1
_geom_torsion_site_symmetry_4
O1 C1 C2 C7 175.4(5) . .
O2 C1 C2 C7 -4.9(7) . .
O1 C1 C2 C3 -3.5(7) . .
O2 C1 C2 C3 176.3(5) . .
C7 C2 C3 C4 -0.7(9) . .
C1 C2 C3 C4 178.2(5) . .
C2 C3 C4 C5 0.4(10) . .
C3 C4 C5 C6 0.4(10) . .
C3 C4 C5 C11 179.0(6) . .
C4 C5 C6 C7 -1.1(9) . .
C11 C5 C6 C7 -179.8(6) . .
C3 C2 C7 C6 0.0(9) . .
C1 C2 C7 C6 -178.8(5) . .
C5 C6 C7 C2 0.9(9) . .
C8 C8 C9 C11 177.2(6) 14_556 .
C8 C8 C9 C10 0.8(11) 14_556 .
C11 C9 C10 C9 1.1(17) . 20
C8 C9 C10 C9 177.7(7) . 20
C11 C9 C10 C10 -177.4(6) . 14_556
C8 C9 C10 C10 -0.8(11) . 14_556
C8 C9 C11 C12 -177.9(9) . .
C10 C9 C11 C12 -1.5(14) . .
C8 C9 C11 C5 6.4(14) . .
C10 C9 C11 C5 -177.2(9) . .
C4 C5 C11 C12 -122.4(9) . .
C6 C5 C11 C12 56.2(11) . .
C4 C5 C11 C9 53.4(11) . .
C6 C5 C11 C9 -128.0(8) . .
C9 C11 C12 C11 1.9(18) . 20
C5 C11 C12 C11 177.8(7) . 20
O2 C1 O1 Zr2 7.9(8) . .
C2 C1 O1 Zr2 -172.4(3) . .
O1 C1 O2 Zr1 -6.4(8) . .
C2 C1 O2 Zr1 173.9(3) . .
