data_image0
_cell_length_a       71.0716
_cell_length_b       71.0716
_cell_length_c       71.0716
_cell_angle_alpha    41.832
_cell_angle_beta     41.832
_cell_angle_gamma    41.832

_symmetry_space_group_name_H-M    "P 1"
_symmetry_int_tables_number       1

loop_
  _symmetry_equiv_pos_as_xyz
  'x, y, z'

loop_
  _atom_site_label
  _atom_site_occupancy
  _atom_site_fract_x
  _atom_site_fract_y
  _atom_site_fract_z
  _atom_site_thermal_displace_type
  _atom_site_B_iso_or_equiv
  _atom_site_type_symbol
  Zn1      1.0000 0.91830  0.06630  0.60430  Biso   1.000  Zn
  Zn2      1.0000 0.08170  0.93370  0.39570  Biso   1.000  Zn
  Zn3      1.0000 0.60430  0.91830  0.06630  Biso   1.000  Zn
  Zn4      1.0000 0.39570  0.08170  0.93370  Biso   1.000  Zn
  Zn5      1.0000 0.06630  0.60430  0.91830  Biso   1.000  Zn
  Zn6      1.0000 0.93370  0.39570  0.08170  Biso   1.000  Zn
  Zn7      1.0000 0.87970  0.11870  0.56470  Biso   1.000  Zn
  Zn8      1.0000 0.12030  0.88130  0.43530  Biso   1.000  Zn
  Zn9      1.0000 0.56470  0.87970  0.11870  Biso   1.000  Zn
  Zn10     1.0000 0.43530  0.12030  0.88130  Biso   1.000  Zn
  Zn11     1.0000 0.11870  0.56470  0.87970  Biso   1.000  Zn
  Zn12     1.0000 0.88130  0.43530  0.12030  Biso   1.000  Zn
  Zn13     1.0000 0.89890  0.13690  0.57590  Biso   1.000  Zn
  Zn14     1.0000 0.10110  0.86310  0.42410  Biso   1.000  Zn
  Zn15     1.0000 0.57590  0.89890  0.13690  Biso   1.000  Zn
  Zn16     1.0000 0.42410  0.10110  0.86310  Biso   1.000  Zn
  Zn17     1.0000 0.13690  0.57590  0.89890  Biso   1.000  Zn
  Zn18     1.0000 0.86310  0.42410  0.10110  Biso   1.000  Zn
  Zn19     1.0000 0.84790  0.11090  0.63190  Biso   1.000  Zn
  Zn20     1.0000 0.15210  0.88910  0.36810  Biso   1.000  Zn
  Zn21     1.0000 0.63190  0.84790  0.11090  Biso   1.000  Zn
  Zn22     1.0000 0.36810  0.15210  0.88910  Biso   1.000  Zn
  Zn23     1.0000 0.11090  0.63190  0.84790  Biso   1.000  Zn
  Zn24     1.0000 0.88910  0.36810  0.15210  Biso   1.000  Zn
  Zn25     1.0000 0.78040  0.97040  0.49340  Biso   1.000  Zn
  Zn26     1.0000 0.21960  0.02960  0.50660  Biso   1.000  Zn
  Zn27     1.0000 0.49340  0.78040  0.97040  Biso   1.000  Zn
  Zn28     1.0000 0.50660  0.21960  0.02960  Biso   1.000  Zn
  Zn29     1.0000 0.97040  0.49340  0.78040  Biso   1.000  Zn
  Zn30     1.0000 0.02960  0.50660  0.21960  Biso   1.000  Zn
  Zn31     1.0000 0.73400  0.02800  0.46600  Biso   1.000  Zn
  Zn32     1.0000 0.26600  0.97200  0.53400  Biso   1.000  Zn
  Zn33     1.0000 0.46600  0.73400  0.02800  Biso   1.000  Zn
  Zn34     1.0000 0.53400  0.26600  0.97200  Biso   1.000  Zn
  Zn35     1.0000 0.02800  0.46600  0.73400  Biso   1.000  Zn
  Zn36     1.0000 0.97200  0.53400  0.26600  Biso   1.000  Zn
  Zn37     1.0000 0.71830  0.00730  0.53030  Biso   1.000  Zn
  Zn38     1.0000 0.28170  0.99270  0.46970  Biso   1.000  Zn
  Zn39     1.0000 0.53030  0.71830  0.00730  Biso   1.000  Zn
  Zn40     1.0000 0.46970  0.28170  0.99270  Biso   1.000  Zn
  Zn41     1.0000 0.00730  0.53030  0.71830  Biso   1.000  Zn
  Zn42     1.0000 0.99270  0.46970  0.28170  Biso   1.000  Zn
  Zn43     1.0000 0.76600  0.03300  0.47400  Biso   1.000  Zn
  Zn44     1.0000 0.23400  0.96700  0.52600  Biso   1.000  Zn
  Zn45     1.0000 0.47400  0.76600  0.03300  Biso   1.000  Zn
  Zn46     1.0000 0.52600  0.23400  0.96700  Biso   1.000  Zn
  Zn47     1.0000 0.03300  0.47400  0.76600  Biso   1.000  Zn
  Zn48     1.0000 0.96700  0.52600  0.23400  Biso   1.000  Zn
  Zn49     1.0000 0.93500  0.38200  0.61900  Biso   1.000  Zn
  Zn50     1.0000 0.06500  0.61800  0.38100  Biso   1.000  Zn
  Zn51     1.0000 0.61900  0.93500  0.38200  Biso   1.000  Zn
  Zn52     1.0000 0.38100  0.06500  0.61800  Biso   1.000  Zn
  Zn53     1.0000 0.38200  0.61900  0.93500  Biso   1.000  Zn
  Zn54     1.0000 0.61800  0.38100  0.06500  Biso   1.000  Zn
  Zn55     1.0000 0.89660  0.43160  0.58260  Biso   1.000  Zn
  Zn56     1.0000 0.10340  0.56840  0.41740  Biso   1.000  Zn
  Zn57     1.0000 0.58260  0.89660  0.43160  Biso   1.000  Zn
  Zn58     1.0000 0.41740  0.10340  0.56840  Biso   1.000  Zn
  Zn59     1.0000 0.43160  0.58260  0.89660  Biso   1.000  Zn
  Zn60     1.0000 0.56840  0.41740  0.10340  Biso   1.000  Zn
  Zn61     1.0000 0.87030  0.38830  0.65130  Biso   1.000  Zn
  Zn62     1.0000 0.12970  0.61170  0.34870  Biso   1.000  Zn
  Zn63     1.0000 0.65130  0.87030  0.38830  Biso   1.000  Zn
  Zn64     1.0000 0.34870  0.12970  0.61170  Biso   1.000  Zn
  Zn65     1.0000 0.38830  0.65130  0.87030  Biso   1.000  Zn
  Zn66     1.0000 0.61170  0.34870  0.12970  Biso   1.000  Zn
  Zn67     1.0000 0.92440  0.36340  0.60140  Biso   1.000  Zn
  Zn68     1.0000 0.07560  0.63660  0.39860  Biso   1.000  Zn
  Zn69     1.0000 0.60140  0.92440  0.36340  Biso   1.000  Zn
  Zn70     1.0000 0.39860  0.07560  0.63660  Biso   1.000  Zn
  Zn71     1.0000 0.36340  0.60140  0.92440  Biso   1.000  Zn
  Zn72     1.0000 0.63660  0.39860  0.07560  Biso   1.000  Zn
  O1       1.0000 0.88630  0.10790  0.59440  Biso   1.000  O
  O2       1.0000 0.11370  0.89210  0.40560  Biso   1.000  O
  O3       1.0000 0.59440  0.88630  0.10790  Biso   1.000  O
  O4       1.0000 0.40560  0.11370  0.89210  Biso   1.000  O
  O5       1.0000 0.10790  0.59440  0.88630  Biso   1.000  O
  O6       1.0000 0.89210  0.40560  0.11370  Biso   1.000  O
  O7       1.0000 0.74960  0.00970  0.49090  Biso   1.000  O
  O8       1.0000 0.25040  0.99030  0.50910  Biso   1.000  O
  O9       1.0000 0.49090  0.74960  0.00970  Biso   1.000  O
  O10      1.0000 0.50910  0.25040  0.99030  Biso   1.000  O
  O11      1.0000 0.00970  0.49090  0.74960  Biso   1.000  O
  O12      1.0000 0.99030  0.50910  0.25040  Biso   1.000  O
  O13      1.0000 0.90670  0.39120  0.61350  Biso   1.000  O
  O14      1.0000 0.09330  0.60880  0.38650  Biso   1.000  O
  O15      1.0000 0.61350  0.90670  0.39120  Biso   1.000  O
  O16      1.0000 0.38650  0.09330  0.60880  Biso   1.000  O
  O17      1.0000 0.39120  0.61350  0.90670  Biso   1.000  O
  O18      1.0000 0.60880  0.38650  0.09330  Biso   1.000  O
  O19      1.0000 0.95060  0.06660  0.59360  Biso   1.000  O
  O20      1.0000 0.04940  0.93340  0.40640  Biso   1.000  O
  O21      1.0000 0.59360  0.95060  0.06660  Biso   1.000  O
  O22      1.0000 0.40640  0.04940  0.93340  Biso   1.000  O
  O23      1.0000 0.06660  0.59360  0.95060  Biso   1.000  O
  O24      1.0000 0.93340  0.40640  0.04940  Biso   1.000  O
  O25      1.0000 0.81840  0.12140  0.62840  Biso   1.000  O
  O26      1.0000 0.18160  0.87860  0.37160  Biso   1.000  O
  O27      1.0000 0.62840  0.81840  0.12140  Biso   1.000  O
  O28      1.0000 0.37160  0.18160  0.87860  Biso   1.000  O
  O29      1.0000 0.12140  0.62840  0.81840  Biso   1.000  O
  O30      1.0000 0.87860  0.37160  0.18160  Biso   1.000  O
  O31      1.0000 0.84200  0.12600  0.58100  Biso   1.000  O
  O32      1.0000 0.15800  0.87400  0.41900  Biso   1.000  O
  O33      1.0000 0.58100  0.84200  0.12600  Biso   1.000  O
  O34      1.0000 0.41900  0.15800  0.87400  Biso   1.000  O
  O35      1.0000 0.12600  0.58100  0.84200  Biso   1.000  O
  O36      1.0000 0.87400  0.41900  0.15800  Biso   1.000  O
  O37      1.0000 0.93880  0.11580  0.57180  Biso   1.000  O
  O38      1.0000 0.06120  0.88420  0.42820  Biso   1.000  O
  O39      1.0000 0.57180  0.93880  0.11580  Biso   1.000  O
  O40      1.0000 0.42820  0.06120  0.88420  Biso   1.000  O
  O41      1.0000 0.11580  0.57180  0.93880  Biso   1.000  O
  O42      1.0000 0.88420  0.42820  0.06120  Biso   1.000  O
  O43      1.0000 0.83640  0.13840  0.63840  Biso   1.000  O
  O44      1.0000 0.16360  0.86160  0.36160  Biso   1.000  O
  O45      1.0000 0.63840  0.83640  0.13840  Biso   1.000  O
  O46      1.0000 0.36160  0.16360  0.86160  Biso   1.000  O
  O47      1.0000 0.13840  0.63840  0.83640  Biso   1.000  O
  O48      1.0000 0.86160  0.36160  0.16360  Biso   1.000  O
  O49      1.0000 0.93370  0.04970  0.58270  Biso   1.000  O
  O50      1.0000 0.06630  0.95030  0.41730  Biso   1.000  O
  O51      1.0000 0.58270  0.93370  0.04970  Biso   1.000  O
  O52      1.0000 0.41730  0.06630  0.95030  Biso   1.000  O
  O53      1.0000 0.04970  0.58270  0.93370  Biso   1.000  O
  O54      1.0000 0.95030  0.41730  0.06630  Biso   1.000  O
  O55      1.0000 0.90390  0.04190  0.64490  Biso   1.000  O
  O56      1.0000 0.09610  0.95810  0.35510  Biso   1.000  O
  O57      1.0000 0.64490  0.90390  0.04190  Biso   1.000  O
  O58      1.0000 0.35510  0.09610  0.95810  Biso   1.000  O
  O59      1.0000 0.04190  0.64490  0.90390  Biso   1.000  O
  O60      1.0000 0.95810  0.35510  0.09610  Biso   1.000  O
  O61      1.0000 0.85340  0.07440  0.66440  Biso   1.000  O
  O62      1.0000 0.14660  0.92560  0.33560  Biso   1.000  O
  O63      1.0000 0.66440  0.85340  0.07440  Biso   1.000  O
  O64      1.0000 0.33560  0.14660  0.92560  Biso   1.000  O
  O65      1.0000 0.07440  0.66440  0.85340  Biso   1.000  O
  O66      1.0000 0.92560  0.33560  0.14660  Biso   1.000  O
  O67      1.0000 0.46880  0.11480  0.84780  Biso   1.000  O
  O68      1.0000 0.53120  0.88520  0.15220  Biso   1.000  O
  O69      1.0000 0.84780  0.46880  0.11480  Biso   1.000  O
  O70      1.0000 0.15220  0.53120  0.88520  Biso   1.000  O
  O71      1.0000 0.11480  0.84780  0.46880  Biso   1.000  O
  O72      1.0000 0.88520  0.15220  0.53120  Biso   1.000  O
  O73      1.0000 0.74540  0.04940  0.49740  Biso   1.000  O
  O74      1.0000 0.25460  0.95060  0.50260  Biso   1.000  O
  O75      1.0000 0.49740  0.74540  0.04940  Biso   1.000  O
  O76      1.0000 0.50260  0.25460  0.95060  Biso   1.000  O
  O77      1.0000 0.04940  0.49740  0.74540  Biso   1.000  O
  O78      1.0000 0.95060  0.50260  0.25460  Biso   1.000  O
  O79      1.0000 0.71140  0.02940  0.53940  Biso   1.000  O
  O80      1.0000 0.28860  0.97060  0.46060  Biso   1.000  O
  O81      1.0000 0.53940  0.71140  0.02940  Biso   1.000  O
  O82      1.0000 0.46060  0.28860  0.97060  Biso   1.000  O
  O83      1.0000 0.02940  0.53940  0.71140  Biso   1.000  O
  O84      1.0000 0.97060  0.46060  0.28860  Biso   1.000  O
  O85      1.0000 0.56270  0.23670  0.93470  Biso   1.000  O
  O86      1.0000 0.43730  0.76330  0.06530  Biso   1.000  O
  O87      1.0000 0.93470  0.56270  0.23670  Biso   1.000  O
  O88      1.0000 0.06530  0.43730  0.76330  Biso   1.000  O
  O89      1.0000 0.23670  0.93470  0.56270  Biso   1.000  O
  O90      1.0000 0.76330  0.06530  0.43730  Biso   1.000  O
  O91      1.0000 0.56660  0.26260  0.93760  Biso   1.000  O
  O92      1.0000 0.43340  0.73740  0.06240  Biso   1.000  O
  O93      1.0000 0.93760  0.56660  0.26260  Biso   1.000  O
  O94      1.0000 0.06240  0.43340  0.73740  Biso   1.000  O
  O95      1.0000 0.26260  0.93760  0.56660  Biso   1.000  O
  O96      1.0000 0.73740  0.06240  0.43340  Biso   1.000  O
  O97      1.0000 0.19390  0.98890  0.53390  Biso   1.000  O
  O98      1.0000 0.80610  0.01110  0.46610  Biso   1.000  O
  O99      1.0000 0.53390  0.19390  0.98890  Biso   1.000  O
  O100     1.0000 0.46610  0.80610  0.01110  Biso   1.000  O
  O101     1.0000 0.98890  0.53390  0.19390  Biso   1.000  O
  O102     1.0000 0.01110  0.46610  0.80610  Biso   1.000  O
  O103     1.0000 0.18190  0.03590  0.51990  Biso   1.000  O
  O104     1.0000 0.81810  0.96410  0.48010  Biso   1.000  O
  O105     1.0000 0.51990  0.18190  0.03590  Biso   1.000  O
  O106     1.0000 0.48010  0.81810  0.96410  Biso   1.000  O
  O107     1.0000 0.03590  0.51990  0.18190  Biso   1.000  O
  O108     1.0000 0.96410  0.48010  0.81810  Biso   1.000  O
  O109     1.0000 0.51230  0.30730  0.96430  Biso   1.000  O
  O110     1.0000 0.48770  0.69270  0.03570  Biso   1.000  O
  O111     1.0000 0.96430  0.51230  0.30730  Biso   1.000  O
  O112     1.0000 0.03570  0.48770  0.69270  Biso   1.000  O
  O113     1.0000 0.30730  0.96430  0.51230  Biso   1.000  O
  O114     1.0000 0.69270  0.03570  0.48770  Biso   1.000  O
  O115     1.0000 0.46540  0.31840  0.97940  Biso   1.000  O
  O116     1.0000 0.53460  0.68160  0.02060  Biso   1.000  O
  O117     1.0000 0.97940  0.46540  0.31840  Biso   1.000  O
  O118     1.0000 0.02060  0.53460  0.68160  Biso   1.000  O
  O119     1.0000 0.31840  0.97940  0.46540  Biso   1.000  O
  O120     1.0000 0.68160  0.02060  0.53460  Biso   1.000  O
  O121     1.0000 0.34260  0.08060  0.62560  Biso   1.000  O
  O122     1.0000 0.65740  0.91940  0.37440  Biso   1.000  O
  O123     1.0000 0.62560  0.34260  0.08060  Biso   1.000  O
  O124     1.0000 0.37440  0.65740  0.91940  Biso   1.000  O
  O125     1.0000 0.08060  0.62560  0.34260  Biso   1.000  O
  O126     1.0000 0.91940  0.37440  0.65740  Biso   1.000  O
  O127     1.0000 0.31880  0.12680  0.62180  Biso   1.000  O
  O128     1.0000 0.68120  0.87320  0.37820  Biso   1.000  O
  O129     1.0000 0.62180  0.31880  0.12680  Biso   1.000  O
  O130     1.0000 0.37820  0.68120  0.87320  Biso   1.000  O
  O131     1.0000 0.12680  0.62180  0.31880  Biso   1.000  O
  O132     1.0000 0.87320  0.37820  0.68120  Biso   1.000  O
  O133     1.0000 0.83660  0.42460  0.64660  Biso   1.000  O
  O134     1.0000 0.16340  0.57540  0.35340  Biso   1.000  O
  O135     1.0000 0.64660  0.83660  0.42460  Biso   1.000  O
  O136     1.0000 0.35340  0.16340  0.57540  Biso   1.000  O
  O137     1.0000 0.42460  0.64660  0.83660  Biso   1.000  O
  O138     1.0000 0.57540  0.35340  0.16340  Biso   1.000  O
  O139     1.0000 0.46140  0.10140  0.83440  Biso   1.000  O
  O140     1.0000 0.53860  0.89860  0.16560  Biso   1.000  O
  O141     1.0000 0.83440  0.46140  0.10140  Biso   1.000  O
  O142     1.0000 0.16560  0.53860  0.89860  Biso   1.000  O
  O143     1.0000 0.10140  0.83440  0.46140  Biso   1.000  O
  O144     1.0000 0.89860  0.16560  0.53860  Biso   1.000  O
  O145     1.0000 0.87340  0.15540  0.59940  Biso   1.000  O
  O146     1.0000 0.12660  0.84460  0.40060  Biso   1.000  O
  O147     1.0000 0.59940  0.87340  0.15540  Biso   1.000  O
  O148     1.0000 0.40060  0.12660  0.84460  Biso   1.000  O
  O149     1.0000 0.15540  0.59940  0.87340  Biso   1.000  O
  O150     1.0000 0.84460  0.40060  0.12660  Biso   1.000  O
  O151     1.0000 0.86300  0.36000  0.66500  Biso   1.000  O
  O152     1.0000 0.13700  0.64000  0.33500  Biso   1.000  O
  O153     1.0000 0.66500  0.86300  0.36000  Biso   1.000  O
  O154     1.0000 0.33500  0.13700  0.64000  Biso   1.000  O
  O155     1.0000 0.36000  0.66500  0.86300  Biso   1.000  O
  O156     1.0000 0.64000  0.33500  0.13700  Biso   1.000  O
  O157     1.0000 0.90180  0.34280  0.62780  Biso   1.000  O
  O158     1.0000 0.09820  0.65720  0.37220  Biso   1.000  O
  O159     1.0000 0.62780  0.90180  0.34280  Biso   1.000  O
  O160     1.0000 0.37220  0.09820  0.65720  Biso   1.000  O
  O161     1.0000 0.34280  0.62780  0.90180  Biso   1.000  O
  O162     1.0000 0.65720  0.37220  0.09820  Biso   1.000  O
  O163     1.0000 0.96210  0.33510  0.60010  Biso   1.000  O
  O164     1.0000 0.03790  0.66490  0.39990  Biso   1.000  O
  O165     1.0000 0.60010  0.96210  0.33510  Biso   1.000  O
  O166     1.0000 0.39990  0.03790  0.66490  Biso   1.000  O
  O167     1.0000 0.33510  0.60010  0.96210  Biso   1.000  O
  O168     1.0000 0.66490  0.39990  0.03790  Biso   1.000  O
  O169     1.0000 0.24740  0.99640  0.54940  Biso   1.000  O
  O170     1.0000 0.75260  0.00360  0.45060  Biso   1.000  O
  O171     1.0000 0.54940  0.24740  0.99640  Biso   1.000  O
  O172     1.0000 0.45060  0.75260  0.00360  Biso   1.000  O
  O173     1.0000 0.99640  0.54940  0.24740  Biso   1.000  O
  O174     1.0000 0.00360  0.45060  0.75260  Biso   1.000  O
  O175     1.0000 0.21250  0.03950  0.52950  Biso   1.000  O
  O176     1.0000 0.78750  0.96050  0.47050  Biso   1.000  O
  O177     1.0000 0.52950  0.21250  0.03950  Biso   1.000  O
  O178     1.0000 0.47050  0.78750  0.96050  Biso   1.000  O
  O179     1.0000 0.03950  0.52950  0.21250  Biso   1.000  O
  O180     1.0000 0.96050  0.47050  0.78750  Biso   1.000  O
  O181     1.0000 0.96950  0.34850  0.61350  Biso   1.000  O
  O182     1.0000 0.03050  0.65150  0.38650  Biso   1.000  O
  O183     1.0000 0.61350  0.96950  0.34850  Biso   1.000  O
  O184     1.0000 0.38650  0.03050  0.65150  Biso   1.000  O
  O185     1.0000 0.34850  0.61350  0.96950  Biso   1.000  O
  O186     1.0000 0.65150  0.38650  0.03050  Biso   1.000  O
  O187     1.0000 0.22790  0.05990  0.46790  Biso   1.000  O
  O188     1.0000 0.77210  0.94010  0.53210  Biso   1.000  O
  O189     1.0000 0.46790  0.22790  0.05990  Biso   1.000  O
  O190     1.0000 0.53210  0.77210  0.94010  Biso   1.000  O
  O191     1.0000 0.05990  0.46790  0.22790  Biso   1.000  O
  O192     1.0000 0.94010  0.53210  0.77210  Biso   1.000  O
  O193     1.0000 0.27370  0.03170  0.44070  Biso   1.000  O
  O194     1.0000 0.72630  0.96830  0.55930  Biso   1.000  O
  O195     1.0000 0.44070  0.27370  0.03170  Biso   1.000  O
  O196     1.0000 0.55930  0.72630  0.96830  Biso   1.000  O
  O197     1.0000 0.03170  0.44070  0.27370  Biso   1.000  O
  O198     1.0000 0.96830  0.55930  0.72630  Biso   1.000  O
  O199     1.0000 0.85610  0.45610  0.59710  Biso   1.000  O
  O200     1.0000 0.14390  0.54390  0.40290  Biso   1.000  O
  O201     1.0000 0.59710  0.85610  0.45610  Biso   1.000  O
  O202     1.0000 0.40290  0.14390  0.54390  Biso   1.000  O
  O203     1.0000 0.45610  0.59710  0.85610  Biso   1.000  O
  O204     1.0000 0.54390  0.40290  0.14390  Biso   1.000  O
  O205     1.0000 0.43330  0.54930  0.90630  Biso   1.000  O
  O206     1.0000 0.56670  0.45070  0.09370  Biso   1.000  O
  O207     1.0000 0.90630  0.43330  0.54930  Biso   1.000  O
  O208     1.0000 0.09370  0.56670  0.45070  Biso   1.000  O
  O209     1.0000 0.54930  0.90630  0.43330  Biso   1.000  O
  O210     1.0000 0.45070  0.09370  0.56670  Biso   1.000  O
  O211     1.0000 0.38310  0.56210  0.92810  Biso   1.000  O
  O212     1.0000 0.61690  0.43790  0.07190  Biso   1.000  O
  O213     1.0000 0.92810  0.38310  0.56210  Biso   1.000  O
  O214     1.0000 0.07190  0.61690  0.43790  Biso   1.000  O
  O215     1.0000 0.56210  0.92810  0.38310  Biso   1.000  O
  O216     1.0000 0.43790  0.07190  0.61690  Biso   1.000  O
  O217     1.0000 0.90680  0.08780  0.55380  Biso   1.000  O
  O218     1.0000 0.09320  0.91220  0.44620  Biso   1.000  O
  O219     1.0000 0.55380  0.90680  0.08780  Biso   1.000  O
  O220     1.0000 0.44620  0.09320  0.91220  Biso   1.000  O
  O221     1.0000 0.08780  0.55380  0.90680  Biso   1.000  O
  O222     1.0000 0.91220  0.44620  0.09320  Biso   1.000  O
  O223     1.0000 0.43450  0.08150  0.55050  Biso   1.000  O
  O224     1.0000 0.56550  0.91850  0.44950  Biso   1.000  O
  O225     1.0000 0.55050  0.43450  0.08150  Biso   1.000  O
  O226     1.0000 0.44950  0.56550  0.91850  Biso   1.000  O
  O227     1.0000 0.08150  0.55050  0.43450  Biso   1.000  O
  O228     1.0000 0.91850  0.44950  0.56550  Biso   1.000  O
  O229     1.0000 0.40760  0.05360  0.58760  Biso   1.000  O
  O230     1.0000 0.59240  0.94640  0.41240  Biso   1.000  O
  O231     1.0000 0.58760  0.40760  0.05360  Biso   1.000  O
  O232     1.0000 0.41240  0.59240  0.94640  Biso   1.000  O
  O233     1.0000 0.05360  0.58760  0.40760  Biso   1.000  O
  O234     1.0000 0.94640  0.41240  0.59240  Biso   1.000  O
  C1       1.0000 0.95730  0.08730  0.58030  Biso   1.000  C
  C2       1.0000 0.04270  0.91270  0.41970  Biso   1.000  C
  C3       1.0000 0.58030  0.95730  0.08730  Biso   1.000  C
  C4       1.0000 0.41970  0.04270  0.91270  Biso   1.000  C
  C5       1.0000 0.08730  0.58030  0.95730  Biso   1.000  C
  C6       1.0000 0.91270  0.41970  0.04270  Biso   1.000  C
  C7       1.0000 0.92860  0.06060  0.56160  Biso   1.000  C
  C8       1.0000 0.07140  0.93940  0.43840  Biso   1.000  C
  C9       1.0000 0.56160  0.92860  0.06060  Biso   1.000  C
  C10      1.0000 0.43840  0.07140  0.93940  Biso   1.000  C
  C11      1.0000 0.06060  0.56160  0.92860  Biso   1.000  C
  C12      1.0000 0.93940  0.43840  0.07140  Biso   1.000  C
  C13      1.0000 0.87740  0.04740  0.66740  Biso   1.000  C
  C14      1.0000 0.12260  0.95260  0.33260  Biso   1.000  C
  C15      1.0000 0.66740  0.87740  0.04740  Biso   1.000  C
  C16      1.0000 0.33260  0.12260  0.95260  Biso   1.000  C
  C17      1.0000 0.04740  0.66740  0.87740  Biso   1.000  C
  C18      1.0000 0.95260  0.33260  0.12260  Biso   1.000  C
  C19      1.0000 0.71370  0.06170  0.53870  Biso   1.000  C
  C20      1.0000 0.28630  0.93830  0.46130  Biso   1.000  C
  C21      1.0000 0.53870  0.71370  0.06170  Biso   1.000  C
  C22      1.0000 0.46130  0.28630  0.93830  Biso   1.000  C
  C23      1.0000 0.06170  0.53870  0.71370  Biso   1.000  C
  C24      1.0000 0.93830  0.46130  0.28630  Biso   1.000  C
  C25      1.0000 0.57710  0.24910  0.92410  Biso   1.000  C
  C26      1.0000 0.42290  0.75090  0.07590  Biso   1.000  C
  C27      1.0000 0.92410  0.57710  0.24910  Biso   1.000  C
  C28      1.0000 0.07590  0.42290  0.75090  Biso   1.000  C
  C29      1.0000 0.24910  0.92410  0.57710  Biso   1.000  C
  C30      1.0000 0.75090  0.07590  0.42290  Biso   1.000  C
  C31      1.0000 0.17450  0.01650  0.53050  Biso   1.000  C
  C32      1.0000 0.82550  0.98350  0.46950  Biso   1.000  C
  C33      1.0000 0.53050  0.17450  0.01650  Biso   1.000  C
  C34      1.0000 0.46950  0.82550  0.98350  Biso   1.000  C
  C35      1.0000 0.01650  0.53050  0.17450  Biso   1.000  C
  C36      1.0000 0.98350  0.46950  0.82550  Biso   1.000  C
  C37      1.0000 0.97900  0.32900  0.60700  Biso   1.000  C
  C38      1.0000 0.02100  0.67100  0.39300  Biso   1.000  C
  C39      1.0000 0.60700  0.97900  0.32900  Biso   1.000  C
  C40      1.0000 0.39300  0.02100  0.67100  Biso   1.000  C
  C41      1.0000 0.32900  0.60700  0.97900  Biso   1.000  C
  C42      1.0000 0.67100  0.39300  0.02100  Biso   1.000  C
  C43      1.0000 0.31840  0.10540  0.62740  Biso   1.000  C
  C44      1.0000 0.68160  0.89460  0.37260  Biso   1.000  C
  C45      1.0000 0.62740  0.31840  0.10540  Biso   1.000  C
  C46      1.0000 0.37260  0.68160  0.89460  Biso   1.000  C
  C47      1.0000 0.10540  0.62740  0.31840  Biso   1.000  C
  C48      1.0000 0.89460  0.37260  0.68160  Biso   1.000  C
  C49      1.0000 0.83260  0.45160  0.62360  Biso   1.000  C
  C50      1.0000 0.16740  0.54840  0.37640  Biso   1.000  C
  C51      1.0000 0.62360  0.83260  0.45160  Biso   1.000  C
  C52      1.0000 0.37640  0.16740  0.54840  Biso   1.000  C
  C53      1.0000 0.45160  0.62360  0.83260  Biso   1.000  C
  C54      1.0000 0.54840  0.37640  0.16740  Biso   1.000  C
  C55      1.0000 0.81790  0.12690  0.60690  Biso   1.000  C
  C56      1.0000 0.18210  0.87310  0.39310  Biso   1.000  C
  C57      1.0000 0.60690  0.81790  0.12690  Biso   1.000  C
  C58      1.0000 0.39310  0.18210  0.87310  Biso   1.000  C
  C59      1.0000 0.12690  0.60690  0.81790  Biso   1.000  C
  C60      1.0000 0.87310  0.39310  0.18210  Biso   1.000  C
  C61      1.0000 0.78940  0.13540  0.61040  Biso   1.000  C
  C62      1.0000 0.21060  0.86460  0.38960  Biso   1.000  C
  C63      1.0000 0.61040  0.78940  0.13540  Biso   1.000  C
  C64      1.0000 0.38960  0.21060  0.86460  Biso   1.000  C
  C65      1.0000 0.13540  0.61040  0.78940  Biso   1.000  C
  C66      1.0000 0.86460  0.38960  0.21060  Biso   1.000  C
  C67      1.0000 0.74180  0.12980  0.64380  Biso   1.000  C
  C68      1.0000 0.25820  0.87020  0.35620  Biso   1.000  C
  C69      1.0000 0.64380  0.74180  0.12980  Biso   1.000  C
  C70      1.0000 0.35620  0.25820  0.87020  Biso   1.000  C
  C71      1.0000 0.12980  0.64380  0.74180  Biso   1.000  C
  C72      1.0000 0.87020  0.35620  0.25820  Biso   1.000  C
  H1       1.0000 0.72550  0.12430  0.66380  Biso   1.000  H
  H2       1.0000 0.27450  0.87570  0.33620  Biso   1.000  H
  H3       1.0000 0.66380  0.72550  0.12430  Biso   1.000  H
  H4       1.0000 0.33620  0.27450  0.87570  Biso   1.000  H
  H5       1.0000 0.12430  0.66380  0.72550  Biso   1.000  H
  H6       1.0000 0.87570  0.33620  0.27450  Biso   1.000  H
  C73      1.0000 0.76560  0.12660  0.64060  Biso   1.000  C
  C74      1.0000 0.23440  0.87340  0.35940  Biso   1.000  C
  C75      1.0000 0.64060  0.76560  0.12660  Biso   1.000  C
  C76      1.0000 0.35940  0.23440  0.87340  Biso   1.000  C
  C77      1.0000 0.12660  0.64060  0.76560  Biso   1.000  C
  C78      1.0000 0.87340  0.35940  0.23440  Biso   1.000  C
  H7       1.0000 0.76660  0.11820  0.65850  Biso   1.000  H
  H8       1.0000 0.23340  0.88180  0.34150  Biso   1.000  H
  H9       1.0000 0.65850  0.76660  0.11820  Biso   1.000  H
  H10      1.0000 0.34150  0.23340  0.88180  Biso   1.000  H
  H11      1.0000 0.11820  0.65850  0.76660  Biso   1.000  H
  H12      1.0000 0.88180  0.34150  0.23340  Biso   1.000  H
  C79      1.0000 0.68020  0.13720  0.62720  Biso   1.000  C
  C80      1.0000 0.31980  0.86280  0.37280  Biso   1.000  C
  C81      1.0000 0.62720  0.68020  0.13720  Biso   1.000  C
  C82      1.0000 0.37280  0.31980  0.86280  Biso   1.000  C
  C83      1.0000 0.13720  0.62720  0.68020  Biso   1.000  C
  C84      1.0000 0.86280  0.37280  0.31980  Biso   1.000  C
  C85      1.0000 0.68920  0.13120  0.60620  Biso   1.000  C
  C86      1.0000 0.31080  0.86880  0.39380  Biso   1.000  C
  C87      1.0000 0.60620  0.68920  0.13120  Biso   1.000  C
  C88      1.0000 0.39380  0.31080  0.86880  Biso   1.000  C
  C89      1.0000 0.13120  0.60620  0.68920  Biso   1.000  C
  C90      1.0000 0.86880  0.39380  0.31080  Biso   1.000  C
  H13      1.0000 0.70830  0.13120  0.58770  Biso   1.000  H
  H14      1.0000 0.29170  0.86880  0.41230  Biso   1.000  H
  H15      1.0000 0.58770  0.70830  0.13120  Biso   1.000  H
  H16      1.0000 0.41230  0.29170  0.86880  Biso   1.000  H
  H17      1.0000 0.13120  0.58770  0.70830  Biso   1.000  H
  H18      1.0000 0.86880  0.41230  0.29170  Biso   1.000  H
  C91      1.0000 0.67070  0.12370  0.61270  Biso   1.000  C
  C92      1.0000 0.32930  0.87630  0.38730  Biso   1.000  C
  C93      1.0000 0.61270  0.67070  0.12370  Biso   1.000  C
  C94      1.0000 0.38730  0.32930  0.87630  Biso   1.000  C
  C95      1.0000 0.12370  0.61270  0.67070  Biso   1.000  C
  C96      1.0000 0.87630  0.38730  0.32930  Biso   1.000  C
  C97      1.0000 0.64240  0.12440  0.63940  Biso   1.000  C
  C98      1.0000 0.35760  0.87560  0.36060  Biso   1.000  C
  C99      1.0000 0.63940  0.64240  0.12440  Biso   1.000  C
  C100     1.0000 0.36060  0.35760  0.87560  Biso   1.000  C
  C101     1.0000 0.12440  0.63940  0.64240  Biso   1.000  C
  C102     1.0000 0.87560  0.36060  0.35760  Biso   1.000  C
  H19      1.0000 0.62990  0.11910  0.64400  Biso   1.000  H
  H20      1.0000 0.37010  0.88090  0.35600  Biso   1.000  H
  H21      1.0000 0.64400  0.62990  0.11910  Biso   1.000  H
  H22      1.0000 0.35600  0.37010  0.88090  Biso   1.000  H
  H23      1.0000 0.11910  0.64400  0.62990  Biso   1.000  H
  H24      1.0000 0.88090  0.35600  0.37010  Biso   1.000  H
  C103     1.0000 0.63340  0.13040  0.66040  Biso   1.000  C
  C104     1.0000 0.36660  0.86960  0.33960  Biso   1.000  C
  C105     1.0000 0.66040  0.63340  0.13040  Biso   1.000  C
  C106     1.0000 0.33960  0.36660  0.86960  Biso   1.000  C
  C107     1.0000 0.13040  0.66040  0.63340  Biso   1.000  C
  C108     1.0000 0.86960  0.33960  0.36660  Biso   1.000  C
  C109     1.0000 0.65180  0.13780  0.65380  Biso   1.000  C
  C110     1.0000 0.34820  0.86220  0.34620  Biso   1.000  C
  C111     1.0000 0.65380  0.65180  0.13780  Biso   1.000  C
  C112     1.0000 0.34620  0.34820  0.86220  Biso   1.000  C
  C113     1.0000 0.13780  0.65380  0.65180  Biso   1.000  C
  C114     1.0000 0.86220  0.34620  0.34820  Biso   1.000  C
  H25      1.0000 0.64580  0.14160  0.66830  Biso   1.000  H
  H26      1.0000 0.35420  0.85840  0.33170  Biso   1.000  H
  H27      1.0000 0.66830  0.64580  0.14160  Biso   1.000  H
  H28      1.0000 0.33170  0.35420  0.85840  Biso   1.000  H
  H29      1.0000 0.14160  0.66830  0.64580  Biso   1.000  H
  H30      1.0000 0.85840  0.33170  0.35420  Biso   1.000  H
  C115     1.0000 0.56000  0.11600  0.74400  Biso   1.000  C
  C116     1.0000 0.44000  0.88400  0.25600  Biso   1.000  C
  C117     1.0000 0.74400  0.56000  0.11600  Biso   1.000  C
  C118     1.0000 0.25600  0.44000  0.88400  Biso   1.000  C
  C119     1.0000 0.11600  0.74400  0.56000  Biso   1.000  C
  C120     1.0000 0.88400  0.25600  0.44000  Biso   1.000  C
  C121     1.0000 0.55100  0.12100  0.76600  Biso   1.000  C
  C122     1.0000 0.44900  0.87900  0.23400  Biso   1.000  C
  C123     1.0000 0.76600  0.55100  0.12100  Biso   1.000  C
  C124     1.0000 0.23400  0.44900  0.87900  Biso   1.000  C
  C125     1.0000 0.12100  0.76600  0.55100  Biso   1.000  C
  C126     1.0000 0.87900  0.23400  0.44900  Biso   1.000  C
  H31      1.0000 0.56320  0.12580  0.76220  Biso   1.000  H
  H32      1.0000 0.43680  0.87420  0.23780  Biso   1.000  H
  H33      1.0000 0.76220  0.56320  0.12580  Biso   1.000  H
  H34      1.0000 0.23780  0.43680  0.87420  Biso   1.000  H
  H35      1.0000 0.12580  0.76220  0.56320  Biso   1.000  H
  H36      1.0000 0.87420  0.23780  0.43680  Biso   1.000  H
  C127     1.0000 0.52540  0.11640  0.79440  Biso   1.000  C
  C128     1.0000 0.47460  0.88360  0.20560  Biso   1.000  C
  C129     1.0000 0.79440  0.52540  0.11640  Biso   1.000  C
  C130     1.0000 0.20560  0.47460  0.88360  Biso   1.000  C
  C131     1.0000 0.11640  0.79440  0.52540  Biso   1.000  C
  C132     1.0000 0.88360  0.20560  0.47460  Biso   1.000  C
  H37      1.0000 0.51940  0.11920  0.80990  Biso   1.000  H
  H38      1.0000 0.48060  0.88080  0.19010  Biso   1.000  H
  H39      1.0000 0.80990  0.51940  0.11920  Biso   1.000  H
  H40      1.0000 0.19010  0.48060  0.88080  Biso   1.000  H
  H41      1.0000 0.11920  0.80990  0.51940  Biso   1.000  H
  H42      1.0000 0.88080  0.19010  0.48060  Biso   1.000  H
  C133     1.0000 0.50690  0.10890  0.80090  Biso   1.000  C
  C134     1.0000 0.49310  0.89110  0.19910  Biso   1.000  C
  C135     1.0000 0.80090  0.50690  0.10890  Biso   1.000  C
  C136     1.0000 0.19910  0.49310  0.89110  Biso   1.000  C
  C137     1.0000 0.10890  0.80090  0.50690  Biso   1.000  C
  C138     1.0000 0.89110  0.19910  0.49310  Biso   1.000  C
  C139     1.0000 0.51700  0.10300  0.77900  Biso   1.000  C
  C140     1.0000 0.48300  0.89700  0.22100  Biso   1.000  C
  C141     1.0000 0.77900  0.51700  0.10300  Biso   1.000  C
  C142     1.0000 0.22100  0.48300  0.89700  Biso   1.000  C
  C143     1.0000 0.10300  0.77900  0.51700  Biso   1.000  C
  C144     1.0000 0.89700  0.22100  0.48300  Biso   1.000  C
  H43      1.0000 0.50490  0.09750  0.78310  Biso   1.000  H
  H44      1.0000 0.49510  0.90250  0.21690  Biso   1.000  H
  H45      1.0000 0.78310  0.50490  0.09750  Biso   1.000  H
  H46      1.0000 0.21690  0.49510  0.90250  Biso   1.000  H
  H47      1.0000 0.09750  0.78310  0.50490  Biso   1.000  H
  H48      1.0000 0.90250  0.21690  0.49510  Biso   1.000  H
  C145     1.0000 0.54250  0.10750  0.75050  Biso   1.000  C
  C146     1.0000 0.45750  0.89250  0.24950  Biso   1.000  C
  C147     1.0000 0.75050  0.54250  0.10750  Biso   1.000  C
  C148     1.0000 0.24950  0.45750  0.89250  Biso   1.000  C
  C149     1.0000 0.10750  0.75050  0.54250  Biso   1.000  C
  C150     1.0000 0.89250  0.24950  0.45750  Biso   1.000  C
  H49      1.0000 0.54880  0.10430  0.73540  Biso   1.000  H
  H50      1.0000 0.45120  0.89570  0.26460  Biso   1.000  H
  H51      1.0000 0.73540  0.54880  0.10430  Biso   1.000  H
  H52      1.0000 0.26460  0.45120  0.89570  Biso   1.000  H
  H53      1.0000 0.10430  0.73540  0.54880  Biso   1.000  H
  H54      1.0000 0.89570  0.26460  0.45120  Biso   1.000  H
  C151     1.0000 0.47700  0.10800  0.82900  Biso   1.000  C
  C152     1.0000 0.52300  0.89200  0.17100  Biso   1.000  C
  C153     1.0000 0.82900  0.47700  0.10800  Biso   1.000  C
  C154     1.0000 0.17100  0.52300  0.89200  Biso   1.000  C
  C155     1.0000 0.10800  0.82900  0.47700  Biso   1.000  C
  C156     1.0000 0.89200  0.17100  0.52300  Biso   1.000  C
  C157     1.0000 0.69640  0.09040  0.56540  Biso   1.000  C
  C158     1.0000 0.30360  0.90960  0.43460  Biso   1.000  C
  C159     1.0000 0.56540  0.69640  0.09040  Biso   1.000  C
  C160     1.0000 0.43460  0.30360  0.90960  Biso   1.000  C
  C161     1.0000 0.09040  0.56540  0.69640  Biso   1.000  C
  C162     1.0000 0.90960  0.43460  0.30360  Biso   1.000  C
  C163     1.0000 0.72790  0.07990  0.52190  Biso   1.000  C
  C164     1.0000 0.27210  0.92010  0.47810  Biso   1.000  C
  C165     1.0000 0.52190  0.72790  0.07990  Biso   1.000  C
  C166     1.0000 0.47810  0.27210  0.92010  Biso   1.000  C
  C167     1.0000 0.07990  0.52190  0.72790  Biso   1.000  C
  C168     1.0000 0.92010  0.47810  0.27210  Biso   1.000  C
  H55      1.0000 0.74310  0.08333  0.50080  Biso   1.000  H
  H56      1.0000 0.25690  0.91667  0.49920  Biso   1.000  H
  H57      1.0000 0.50080  0.74310  0.08333  Biso   1.000  H
  H58      1.0000 0.49920  0.25690  0.91667  Biso   1.000  H
  H59      1.0000 0.08333  0.50080  0.74310  Biso   1.000  H
  H60      1.0000 0.91667  0.49920  0.25690  Biso   1.000  H
  C169     1.0000 0.71920  0.09420  0.53520  Biso   1.000  C
  C170     1.0000 0.28080  0.90580  0.46480  Biso   1.000  C
  C171     1.0000 0.53520  0.71920  0.09420  Biso   1.000  C
  C172     1.0000 0.46480  0.28080  0.90580  Biso   1.000  C
  C173     1.0000 0.09420  0.53520  0.71920  Biso   1.000  C
  C174     1.0000 0.90580  0.46480  0.28080  Biso   1.000  C
  H61      1.0000 0.72860  0.10710  0.52340  Biso   1.000  H
  H62      1.0000 0.27140  0.89290  0.47660  Biso   1.000  H
  H63      1.0000 0.52340  0.72860  0.10710  Biso   1.000  H
  H64      1.0000 0.47660  0.27140  0.89290  Biso   1.000  H
  H65      1.0000 0.10710  0.52340  0.72860  Biso   1.000  H
  H66      1.0000 0.89290  0.47660  0.27140  Biso   1.000  H
  C175     1.0000 0.78650  0.14950  0.58450  Biso   1.000  C
  C176     1.0000 0.21350  0.85050  0.41550  Biso   1.000  C
  C177     1.0000 0.58450  0.78650  0.14950  Biso   1.000  C
  C178     1.0000 0.41550  0.21350  0.85050  Biso   1.000  C
  C179     1.0000 0.14950  0.58450  0.78650  Biso   1.000  C
  C180     1.0000 0.85050  0.41550  0.21350  Biso   1.000  C
  H67      1.0000 0.80220  0.15640  0.56400  Biso   1.000  H
  H68      1.0000 0.19780  0.84360  0.43600  Biso   1.000  H
  H69      1.0000 0.56400  0.80220  0.15640  Biso   1.000  H
  H70      1.0000 0.43600  0.19780  0.84360  Biso   1.000  H
  H71      1.0000 0.15640  0.56400  0.80220  Biso   1.000  H
  H72      1.0000 0.84360  0.43600  0.19780  Biso   1.000  H
  C181     1.0000 0.76270  0.15270  0.58770  Biso   1.000  C
  C182     1.0000 0.23730  0.84730  0.41230  Biso   1.000  C
  C183     1.0000 0.58770  0.76270  0.15270  Biso   1.000  C
  C184     1.0000 0.41230  0.23730  0.84730  Biso   1.000  C
  C185     1.0000 0.15270  0.58770  0.76270  Biso   1.000  C
  C186     1.0000 0.84730  0.41230  0.23730  Biso   1.000  C
  H73      1.0000 0.76110  0.16260  0.56950  Biso   1.000  H
  H74      1.0000 0.23890  0.83740  0.43050  Biso   1.000  H
  H75      1.0000 0.56950  0.76110  0.16260  Biso   1.000  H
  H76      1.0000 0.43050  0.23890  0.83740  Biso   1.000  H
  H77      1.0000 0.16260  0.56950  0.76110  Biso   1.000  H
  H78      1.0000 0.83740  0.43050  0.23890  Biso   1.000  H
  C187     1.0000 0.73980  0.14380  0.61680  Biso   1.000  C
  C188     1.0000 0.26020  0.85620  0.38320  Biso   1.000  C
  C189     1.0000 0.61680  0.73980  0.14380  Biso   1.000  C
  C190     1.0000 0.38320  0.26020  0.85620  Biso   1.000  C
  C191     1.0000 0.14380  0.61680  0.73980  Biso   1.000  C
  C192     1.0000 0.85620  0.38320  0.26020  Biso   1.000  C
  C193     1.0000 0.68050  0.11450  0.59350  Biso   1.000  C
  C194     1.0000 0.31950  0.88550  0.40650  Biso   1.000  C
  C195     1.0000 0.59350  0.68050  0.11450  Biso   1.000  C
  C196     1.0000 0.40650  0.31950  0.88550  Biso   1.000  C
  C197     1.0000 0.11450  0.59350  0.68050  Biso   1.000  C
  C198     1.0000 0.88550  0.40650  0.31950  Biso   1.000  C
  C199     1.0000 0.68800  0.10400  0.58000  Biso   1.000  C
  C200     1.0000 0.31200  0.89600  0.42000  Biso   1.000  C
  C201     1.0000 0.58000  0.68800  0.10400  Biso   1.000  C
  C202     1.0000 0.42000  0.31200  0.89600  Biso   1.000  C
  C203     1.0000 0.10400  0.58000  0.68800  Biso   1.000  C
  C204     1.0000 0.89600  0.42000  0.31200  Biso   1.000  C
  C205     1.0000 0.58560  0.12160  0.71460  Biso   1.000  C
  C206     1.0000 0.41440  0.87840  0.28540  Biso   1.000  C
  C207     1.0000 0.71460  0.58560  0.12160  Biso   1.000  C
  C208     1.0000 0.28540  0.41440  0.87840  Biso   1.000  C
  C209     1.0000 0.12160  0.71460  0.58560  Biso   1.000  C
  C210     1.0000 0.87840  0.28540  0.41440  Biso   1.000  C
  C211     1.0000 0.60700  0.12600  0.69000  Biso   1.000  C
  C212     1.0000 0.39300  0.87400  0.31000  Biso   1.000  C
  C213     1.0000 0.69000  0.60700  0.12600  Biso   1.000  C
  C214     1.0000 0.31000  0.39300  0.87400  Biso   1.000  C
  C215     1.0000 0.12600  0.69000  0.60700  Biso   1.000  C
  C216     1.0000 0.87400  0.31000  0.39300  Biso   1.000  C
  C217     1.0000 0.71830  0.14230  0.62030  Biso   1.000  C
  C218     1.0000 0.28170  0.85770  0.37970  Biso   1.000  C
  C219     1.0000 0.62030  0.71830  0.14230  Biso   1.000  C
  C220     1.0000 0.37970  0.28170  0.85770  Biso   1.000  C
  C221     1.0000 0.14230  0.62030  0.71830  Biso   1.000  C
  C222     1.0000 0.85770  0.37970  0.28170  Biso   1.000  C
  C223     1.0000 0.70080  0.14080  0.62280  Biso   1.000  C
  C224     1.0000 0.29920  0.85920  0.37720  Biso   1.000  C
  C225     1.0000 0.62280  0.70080  0.14080  Biso   1.000  C
  C226     1.0000 0.37720  0.29920  0.85920  Biso   1.000  C
  C227     1.0000 0.14080  0.62280  0.70080  Biso   1.000  C
  C228     1.0000 0.85920  0.37720  0.29920  Biso   1.000  C
  C229     1.0000 0.68130  0.07330  0.58230  Biso   1.000  C
  C230     1.0000 0.31870  0.92670  0.41770  Biso   1.000  C
  C231     1.0000 0.58230  0.68130  0.07330  Biso   1.000  C
  C232     1.0000 0.41770  0.31870  0.92670  Biso   1.000  C
  C233     1.0000 0.07330  0.58230  0.68130  Biso   1.000  C
  C234     1.0000 0.92670  0.41770  0.31870  Biso   1.000  C
  H79      1.0000 0.66550  0.07060  0.60320  Biso   1.000  H
  H80      1.0000 0.33450  0.92940  0.39680  Biso   1.000  H
  H81      1.0000 0.60320  0.66550  0.07060  Biso   1.000  H
  H82      1.0000 0.39680  0.33450  0.92940  Biso   1.000  H
  H83      1.0000 0.07060  0.60320  0.66550  Biso   1.000  H
  H84      1.0000 0.92940  0.39680  0.33450  Biso   1.000  H
  C235     1.0000 0.68990  0.05890  0.56890  Biso   1.000  C
  C236     1.0000 0.31010  0.94110  0.43110  Biso   1.000  C
  C237     1.0000 0.56890  0.68990  0.05890  Biso   1.000  C
  C238     1.0000 0.43110  0.31010  0.94110  Biso   1.000  C
  C239     1.0000 0.05890  0.56890  0.68990  Biso   1.000  C
  C240     1.0000 0.94110  0.43110  0.31010  Biso   1.000  C
  H85      1.0000 0.67990  0.04660  0.58070  Biso   1.000  H
  H86      1.0000 0.32010  0.95340  0.41930  Biso   1.000  H
  H87      1.0000 0.58070  0.67990  0.04660  Biso   1.000  H
  H88      1.0000 0.41930  0.32010  0.95340  Biso   1.000  H
  H89      1.0000 0.04660  0.58070  0.67990  Biso   1.000  H
  H90      1.0000 0.95340  0.41930  0.32010  Biso   1.000  H
  C241     1.0000 0.84830  0.15530  0.62430  Biso   1.000  C
  C242     1.0000 0.15170  0.84470  0.37570  Biso   1.000  C
  C243     1.0000 0.62430  0.84830  0.15530  Biso   1.000  C
  C244     1.0000 0.37570  0.15170  0.84470  Biso   1.000  C
  C245     1.0000 0.15530  0.62430  0.84830  Biso   1.000  C
  C246     1.0000 0.84470  0.37570  0.15170  Biso   1.000  C
  C247     1.0000 0.83333  0.17410  0.63810  Biso   1.000  C
  C248     1.0000 0.16667  0.82590  0.36190  Biso   1.000  C
  C249     1.0000 0.63810  0.83333  0.17410  Biso   1.000  C
  C250     1.0000 0.36190  0.16667  0.82590  Biso   1.000  C
  C251     1.0000 0.17410  0.63810  0.83333  Biso   1.000  C
  C252     1.0000 0.82590  0.36190  0.16667  Biso   1.000  C
  C253     1.0000 0.79420  0.18720  0.68220  Biso   1.000  C
  C254     1.0000 0.20580  0.81280  0.31780  Biso   1.000  C
  C255     1.0000 0.68220  0.79420  0.18720  Biso   1.000  C
  C256     1.0000 0.31780  0.20580  0.81280  Biso   1.000  C
  C257     1.0000 0.18720  0.68220  0.79420  Biso   1.000  C
  C258     1.0000 0.81280  0.31780  0.20580  Biso   1.000  C
  H91      1.0000 0.77610  0.18640  0.70140  Biso   1.000  H
  H92      1.0000 0.22390  0.81360  0.29860  Biso   1.000  H
  H93      1.0000 0.70140  0.77610  0.18640  Biso   1.000  H
  H94      1.0000 0.29860  0.22390  0.81360  Biso   1.000  H
  H95      1.0000 0.18640  0.70140  0.77610  Biso   1.000  H
  H96      1.0000 0.81360  0.29860  0.22390  Biso   1.000  H
  C259     1.0000 0.80630  0.17330  0.66630  Biso   1.000  C
  C260     1.0000 0.19370  0.82670  0.33370  Biso   1.000  C
  C261     1.0000 0.66630  0.80630  0.17330  Biso   1.000  C
  C262     1.0000 0.33370  0.19370  0.82670  Biso   1.000  C
  C263     1.0000 0.17330  0.66630  0.80630  Biso   1.000  C
  C264     1.0000 0.82670  0.33370  0.19370  Biso   1.000  C
  H97      1.0000 0.79600  0.16260  0.67560  Biso   1.000  H
  H98      1.0000 0.20400  0.83740  0.32440  Biso   1.000  H
  H99      1.0000 0.67560  0.79600  0.16260  Biso   1.000  H
  H100     1.0000 0.32440  0.20400  0.83740  Biso   1.000  H
  H101     1.0000 0.16260  0.67560  0.79600  Biso   1.000  H
  H102     1.0000 0.83740  0.32440  0.20400  Biso   1.000  H
  C265     1.0000 0.78410  0.22810  0.72310  Biso   1.000  C
  C266     1.0000 0.21590  0.77190  0.27690  Biso   1.000  C
  C267     1.0000 0.72310  0.78410  0.22810  Biso   1.000  C
  C268     1.0000 0.27690  0.21590  0.77190  Biso   1.000  C
  C269     1.0000 0.22810  0.72310  0.78410  Biso   1.000  C
  C270     1.0000 0.77190  0.27690  0.21590  Biso   1.000  C
  C271     1.0000 0.80330  0.23630  0.71430  Biso   1.000  C
  C272     1.0000 0.19670  0.76370  0.28570  Biso   1.000  C
  C273     1.0000 0.71430  0.80330  0.23630  Biso   1.000  C
  C274     1.0000 0.28570  0.19670  0.76370  Biso   1.000  C
  C275     1.0000 0.23630  0.71430  0.80330  Biso   1.000  C
  C276     1.0000 0.76370  0.28570  0.19670  Biso   1.000  C
  H103     1.0000 0.82180  0.23660  0.69550  Biso   1.000  H
  H104     1.0000 0.17820  0.76340  0.30450  Biso   1.000  H
  H105     1.0000 0.69550  0.82180  0.23660  Biso   1.000  H
  H106     1.0000 0.30450  0.17820  0.76340  Biso   1.000  H
  H107     1.0000 0.23660  0.69550  0.82180  Biso   1.000  H
  H108     1.0000 0.76340  0.30450  0.17820  Biso   1.000  H
  C277     1.0000 0.79450  0.24450  0.73350  Biso   1.000  C
  C278     1.0000 0.20550  0.75550  0.26650  Biso   1.000  C
  C279     1.0000 0.73350  0.79450  0.24450  Biso   1.000  C
  C280     1.0000 0.26650  0.20550  0.75550  Biso   1.000  C
  C281     1.0000 0.24450  0.73350  0.79450  Biso   1.000  C
  C282     1.0000 0.75550  0.26650  0.20550  Biso   1.000  C
  C283     1.0000 0.76740  0.24340  0.76140  Biso   1.000  C
  C284     1.0000 0.23260  0.75660  0.23860  Biso   1.000  C
  C285     1.0000 0.76140  0.76740  0.24340  Biso   1.000  C
  C286     1.0000 0.23860  0.23260  0.75660  Biso   1.000  C
  C287     1.0000 0.24340  0.76140  0.76740  Biso   1.000  C
  C288     1.0000 0.75660  0.23860  0.23260  Biso   1.000  C
  H109     1.0000 0.76140  0.24870  0.77470  Biso   1.000  H
  H110     1.0000 0.23860  0.75130  0.22530  Biso   1.000  H
  H111     1.0000 0.77470  0.76140  0.24870  Biso   1.000  H
  H112     1.0000 0.22530  0.23860  0.75130  Biso   1.000  H
  H113     1.0000 0.24870  0.77470  0.76140  Biso   1.000  H
  H114     1.0000 0.75130  0.22530  0.23860  Biso   1.000  H
  C289     1.0000 0.74820  0.23620  0.76920  Biso   1.000  C
  C290     1.0000 0.25180  0.76380  0.23080  Biso   1.000  C
  C291     1.0000 0.76920  0.74820  0.23620  Biso   1.000  C
  C292     1.0000 0.23080  0.25180  0.76380  Biso   1.000  C
  C293     1.0000 0.23620  0.76920  0.74820  Biso   1.000  C
  C294     1.0000 0.76380  0.23080  0.25180  Biso   1.000  C
  C295     1.0000 0.75700  0.22800  0.75000  Biso   1.000  C
  C296     1.0000 0.24300  0.77200  0.25000  Biso   1.000  C
  C297     1.0000 0.75000  0.75700  0.22800  Biso   1.000  C
  C298     1.0000 0.25000  0.24300  0.77200  Biso   1.000  C
  C299     1.0000 0.22800  0.75000  0.75700  Biso   1.000  C
  C300     1.0000 0.77200  0.25000  0.24300  Biso   1.000  C
  H115     1.0000 0.74420  0.22190  0.75600  Biso   1.000  H
  H116     1.0000 0.25580  0.77810  0.24400  Biso   1.000  H
  H117     1.0000 0.75600  0.74420  0.22190  Biso   1.000  H
  H118     1.0000 0.24400  0.25580  0.77810  Biso   1.000  H
  H119     1.0000 0.22190  0.75600  0.74420  Biso   1.000  H
  H120     1.0000 0.77810  0.24400  0.25580  Biso   1.000  H
  C301     1.0000 0.66570  0.24070  0.84570  Biso   1.000  C
  C302     1.0000 0.33430  0.75930  0.15430  Biso   1.000  C
  C303     1.0000 0.84570  0.66570  0.24070  Biso   1.000  C
  C304     1.0000 0.15430  0.33430  0.75930  Biso   1.000  C
  C305     1.0000 0.24070  0.84570  0.66570  Biso   1.000  C
  C306     1.0000 0.75930  0.15430  0.33430  Biso   1.000  C
  C307     1.0000 0.64860  0.22960  0.85560  Biso   1.000  C
  C308     1.0000 0.35140  0.77040  0.14440  Biso   1.000  C
  C309     1.0000 0.85560  0.64860  0.22960  Biso   1.000  C
  C310     1.0000 0.14440  0.35140  0.77040  Biso   1.000  C
  C311     1.0000 0.22960  0.85560  0.64860  Biso   1.000  C
  C312     1.0000 0.77040  0.14440  0.35140  Biso   1.000  C
  H121     1.0000 0.65750  0.21860  0.84570  Biso   1.000  H
  H122     1.0000 0.34250  0.78140  0.15430  Biso   1.000  H
  H123     1.0000 0.84570  0.65750  0.21860  Biso   1.000  H
  H124     1.0000 0.15430  0.34250  0.78140  Biso   1.000  H
  H125     1.0000 0.21860  0.84570  0.65750  Biso   1.000  H
  H126     1.0000 0.78140  0.15430  0.34250  Biso   1.000  H
  C313     1.0000 0.61940  0.23240  0.88140  Biso   1.000  C
  C314     1.0000 0.38060  0.76760  0.11860  Biso   1.000  C
  C315     1.0000 0.88140  0.61940  0.23240  Biso   1.000  C
  C316     1.0000 0.11860  0.38060  0.76760  Biso   1.000  C
  C317     1.0000 0.23240  0.88140  0.61940  Biso   1.000  C
  C318     1.0000 0.76760  0.11860  0.38060  Biso   1.000  C
  H127     1.0000 0.60860  0.22330  0.88870  Biso   1.000  H
  H128     1.0000 0.39140  0.77670  0.11130  Biso   1.000  H
  H129     1.0000 0.88870  0.60860  0.22330  Biso   1.000  H
  H130     1.0000 0.11130  0.39140  0.77670  Biso   1.000  H
  H131     1.0000 0.22330  0.88870  0.60860  Biso   1.000  H
  H132     1.0000 0.77670  0.11130  0.39140  Biso   1.000  H
  C319     1.0000 0.60720  0.24720  0.89620  Biso   1.000  C
  C320     1.0000 0.39280  0.75280  0.10380  Biso   1.000  C
  C321     1.0000 0.89620  0.60720  0.24720  Biso   1.000  C
  C322     1.0000 0.10380  0.39280  0.75280  Biso   1.000  C
  C323     1.0000 0.24720  0.89620  0.60720  Biso   1.000  C
  C324     1.0000 0.75280  0.10380  0.39280  Biso   1.000  C
  C325     1.0000 0.62330  0.26030  0.88530  Biso   1.000  C
  C326     1.0000 0.37670  0.73970  0.11470  Biso   1.000  C
  C327     1.0000 0.88530  0.62330  0.26030  Biso   1.000  C
  C328     1.0000 0.11470  0.37670  0.73970  Biso   1.000  C
  C329     1.0000 0.26030  0.88530  0.62330  Biso   1.000  C
  C330     1.0000 0.73970  0.11470  0.37670  Biso   1.000  C
  H133     1.0000 0.61520  0.27040  0.89530  Biso   1.000  H
  H134     1.0000 0.38480  0.72960  0.10470  Biso   1.000  H
  H135     1.0000 0.89530  0.61520  0.27040  Biso   1.000  H
  H136     1.0000 0.10470  0.38480  0.72960  Biso   1.000  H
  H137     1.0000 0.27040  0.89530  0.61520  Biso   1.000  H
  H138     1.0000 0.72960  0.10470  0.38480  Biso   1.000  H
  C331     1.0000 0.65250  0.25750  0.85950  Biso   1.000  C
  C332     1.0000 0.34750  0.74250  0.14050  Biso   1.000  C
  C333     1.0000 0.85950  0.65250  0.25750  Biso   1.000  C
  C334     1.0000 0.14050  0.34750  0.74250  Biso   1.000  C
  C335     1.0000 0.25750  0.85950  0.65250  Biso   1.000  C
  C336     1.0000 0.74250  0.14050  0.34750  Biso   1.000  C
  H139     1.0000 0.66400  0.26550  0.85230  Biso   1.000  H
  H140     1.0000 0.33600  0.73450  0.14770  Biso   1.000  H
  H141     1.0000 0.85230  0.66400  0.26550  Biso   1.000  H
  H142     1.0000 0.14770  0.33600  0.73450  Biso   1.000  H
  H143     1.0000 0.26550  0.85230  0.66400  Biso   1.000  H
  H144     1.0000 0.73450  0.14770  0.33600  Biso   1.000  H
  C337     1.0000 0.84090  0.28190  0.70190  Biso   1.000  C
  C338     1.0000 0.15910  0.71810  0.29810  Biso   1.000  C
  C339     1.0000 0.70190  0.84090  0.28190  Biso   1.000  C
  C340     1.0000 0.29810  0.15910  0.71810  Biso   1.000  C
  C341     1.0000 0.28190  0.70190  0.84090  Biso   1.000  C
  C342     1.0000 0.71810  0.29810  0.15910  Biso   1.000  C
  C343     1.0000 0.88130  0.30030  0.65930  Biso   1.000  C
  C344     1.0000 0.11870  0.69970  0.34070  Biso   1.000  C
  C345     1.0000 0.65930  0.88130  0.30030  Biso   1.000  C
  C346     1.0000 0.34070  0.11870  0.69970  Biso   1.000  C
  C347     1.0000 0.30030  0.65930  0.88130  Biso   1.000  C
  C348     1.0000 0.69970  0.34070  0.11870  Biso   1.000  C
  H145     1.0000 0.90030  0.29990  0.64100  Biso   1.000  H
  H146     1.0000 0.09970  0.70010  0.35900  Biso   1.000  H
  H147     1.0000 0.64100  0.90030  0.29990  Biso   1.000  H
  H148     1.0000 0.35900  0.09970  0.70010  Biso   1.000  H
  H149     1.0000 0.29990  0.64100  0.90030  Biso   1.000  H
  H150     1.0000 0.70010  0.35900  0.09970  Biso   1.000  H
  C349     1.0000 0.86900  0.28100  0.67500  Biso   1.000  C
  C350     1.0000 0.13100  0.71900  0.32500  Biso   1.000  C
  C351     1.0000 0.67500  0.86900  0.28100  Biso   1.000  C
  C352     1.0000 0.32500  0.13100  0.71900  Biso   1.000  C
  C353     1.0000 0.28100  0.67500  0.86900  Biso   1.000  C
  C354     1.0000 0.71900  0.32500  0.13100  Biso   1.000  C
  H151     1.0000 0.87910  0.26830  0.66667  Biso   1.000  H
  H152     1.0000 0.12090  0.73170  0.33333  Biso   1.000  H
  H153     1.0000 0.66667  0.87910  0.26830  Biso   1.000  H
  H154     1.0000 0.33333  0.12090  0.73170  Biso   1.000  H
  H155     1.0000 0.26830  0.66667  0.87910  Biso   1.000  H
  H156     1.0000 0.73170  0.33333  0.12090  Biso   1.000  H
  C355     1.0000 0.84690  0.19090  0.62490  Biso   1.000  C
  C356     1.0000 0.15310  0.80910  0.37510  Biso   1.000  C
  C357     1.0000 0.62490  0.84690  0.19090  Biso   1.000  C
  C358     1.0000 0.37510  0.15310  0.80910  Biso   1.000  C
  C359     1.0000 0.19090  0.62490  0.84690  Biso   1.000  C
  C360     1.0000 0.80910  0.37510  0.15310  Biso   1.000  C
  H157     1.0000 0.86380  0.19370  0.60460  Biso   1.000  H
  H158     1.0000 0.13620  0.80630  0.39540  Biso   1.000  H
  H159     1.0000 0.60460  0.86380  0.19370  Biso   1.000  H
  H160     1.0000 0.39540  0.13620  0.80630  Biso   1.000  H
  H161     1.0000 0.19370  0.60460  0.86380  Biso   1.000  H
  H162     1.0000 0.80630  0.39540  0.13620  Biso   1.000  H
  C361     1.0000 0.83480  0.20580  0.63980  Biso   1.000  C
  C362     1.0000 0.16520  0.79420  0.36020  Biso   1.000  C
  C363     1.0000 0.63980  0.83480  0.20580  Biso   1.000  C
  C364     1.0000 0.36020  0.16520  0.79420  Biso   1.000  C
  C365     1.0000 0.20580  0.63980  0.83480  Biso   1.000  C
  C366     1.0000 0.79420  0.36020  0.16520  Biso   1.000  C
  H163     1.0000 0.84390  0.21750  0.63070  Biso   1.000  H
  H164     1.0000 0.15610  0.78250  0.36930  Biso   1.000  H
  H165     1.0000 0.63070  0.84390  0.21750  Biso   1.000  H
  H166     1.0000 0.36930  0.15610  0.78250  Biso   1.000  H
  H167     1.0000 0.21750  0.63070  0.84390  Biso   1.000  H
  H168     1.0000 0.78250  0.36930  0.15610  Biso   1.000  H
  C367     1.0000 0.80900  0.20300  0.66900  Biso   1.000  C
  C368     1.0000 0.19100  0.79700  0.33100  Biso   1.000  C
  C369     1.0000 0.66900  0.80900  0.20300  Biso   1.000  C
  C370     1.0000 0.33100  0.19100  0.79700  Biso   1.000  C
  C371     1.0000 0.20300  0.66900  0.80900  Biso   1.000  C
  C372     1.0000 0.79700  0.33100  0.19100  Biso   1.000  C
  C373     1.0000 0.81180  0.25580  0.72380  Biso   1.000  C
  C374     1.0000 0.18820  0.74420  0.27620  Biso   1.000  C
  C375     1.0000 0.72380  0.81180  0.25580  Biso   1.000  C
  C376     1.0000 0.27620  0.18820  0.74420  Biso   1.000  C
  C377     1.0000 0.25580  0.72380  0.81180  Biso   1.000  C
  C378     1.0000 0.74420  0.27620  0.18820  Biso   1.000  C
  C379     1.0000 0.82600  0.26700  0.71400  Biso   1.000  C
  C380     1.0000 0.17400  0.73300  0.28600  Biso   1.000  C
  C381     1.0000 0.71400  0.82600  0.26700  Biso   1.000  C
  C382     1.0000 0.28600  0.17400  0.73300  Biso   1.000  C
  C383     1.0000 0.26700  0.71400  0.82600  Biso   1.000  C
  C384     1.0000 0.73300  0.28600  0.17400  Biso   1.000  C
  C385     1.0000 0.69490  0.23890  0.81890  Biso   1.000  C
  C386     1.0000 0.30510  0.76110  0.18110  Biso   1.000  C
  C387     1.0000 0.81890  0.69490  0.23890  Biso   1.000  C
  C388     1.0000 0.18110  0.30510  0.76110  Biso   1.000  C
  C389     1.0000 0.23890  0.81890  0.69490  Biso   1.000  C
  C390     1.0000 0.76110  0.18110  0.30510  Biso   1.000  C
  C391     1.0000 0.72000  0.23600  0.79700  Biso   1.000  C
  C392     1.0000 0.28000  0.76400  0.20300  Biso   1.000  C
  C393     1.0000 0.79700  0.72000  0.23600  Biso   1.000  C
  C394     1.0000 0.20300  0.28000  0.76400  Biso   1.000  C
  C395     1.0000 0.23600  0.79700  0.72000  Biso   1.000  C
  C396     1.0000 0.76400  0.20300  0.28000  Biso   1.000  C
  C397     1.0000 0.79940  0.21340  0.68740  Biso   1.000  C
  C398     1.0000 0.20060  0.78660  0.31260  Biso   1.000  C
  C399     1.0000 0.68740  0.79940  0.21340  Biso   1.000  C
  C400     1.0000 0.31260  0.20060  0.78660  Biso   1.000  C
  C401     1.0000 0.21340  0.68740  0.79940  Biso   1.000  C
  C402     1.0000 0.78660  0.31260  0.20060  Biso   1.000  C
  C403     1.0000 0.79270  0.22070  0.70270  Biso   1.000  C
  C404     1.0000 0.20730  0.77930  0.29730  Biso   1.000  C
  C405     1.0000 0.70270  0.79270  0.22070  Biso   1.000  C
  C406     1.0000 0.29730  0.20730  0.77930  Biso   1.000  C
  C407     1.0000 0.22070  0.70270  0.79270  Biso   1.000  C
  C408     1.0000 0.77930  0.29730  0.20730  Biso   1.000  C
  C409     1.0000 0.82530  0.30130  0.71430  Biso   1.000  C
  C410     1.0000 0.17470  0.69870  0.28570  Biso   1.000  C
  C411     1.0000 0.71430  0.82530  0.30130  Biso   1.000  C
  C412     1.0000 0.28570  0.17470  0.69870  Biso   1.000  C
  C413     1.0000 0.30130  0.71430  0.82530  Biso   1.000  C
  C414     1.0000 0.69870  0.28570  0.17470  Biso   1.000  C
  H169     1.0000 0.80690  0.30160  0.73270  Biso   1.000  H
  H170     1.0000 0.19310  0.69840  0.26730  Biso   1.000  H
  H171     1.0000 0.73270  0.80690  0.30160  Biso   1.000  H
  H172     1.0000 0.26730  0.19310  0.69840  Biso   1.000  H
  H173     1.0000 0.30160  0.73270  0.80690  Biso   1.000  H
  H174     1.0000 0.69840  0.26730  0.19310  Biso   1.000  H
  C415     1.0000 0.83780  0.32080  0.69880  Biso   1.000  C
  C416     1.0000 0.16220  0.67920  0.30120  Biso   1.000  C
  C417     1.0000 0.69880  0.83780  0.32080  Biso   1.000  C
  C418     1.0000 0.30120  0.16220  0.67920  Biso   1.000  C
  C419     1.0000 0.32080  0.69880  0.83780  Biso   1.000  C
  C420     1.0000 0.67920  0.30120  0.16220  Biso   1.000  C
  H175     1.0000 0.82790  0.33333  0.70730  Biso   1.000  H
  H176     1.0000 0.17210  0.66667  0.29270  Biso   1.000  H
  H177     1.0000 0.70730  0.82790  0.33333  Biso   1.000  H
  H178     1.0000 0.29270  0.17210  0.66667  Biso   1.000  H
  H179     1.0000 0.33333  0.70730  0.82790  Biso   1.000  H
  H180     1.0000 0.66667  0.29270  0.17210  Biso   1.000  H
  C421     1.0000 0.86570  0.32070  0.67070  Biso   1.000  C
  C422     1.0000 0.13430  0.67930  0.32930  Biso   1.000  C
  C423     1.0000 0.67070  0.86570  0.32070  Biso   1.000  C
  C424     1.0000 0.32930  0.13430  0.67930  Biso   1.000  C
  C425     1.0000 0.32070  0.67070  0.86570  Biso   1.000  C
  C426     1.0000 0.67930  0.32930  0.13430  Biso   1.000  C
  C427     1.0000 0.87720  0.34220  0.65420  Biso   1.000  C
  C428     1.0000 0.12280  0.65780  0.34580  Biso   1.000  C
  C429     1.0000 0.65420  0.87720  0.34220  Biso   1.000  C
  C430     1.0000 0.34580  0.12280  0.65780  Biso   1.000  C
  C431     1.0000 0.34220  0.65420  0.87720  Biso   1.000  C
  C432     1.0000 0.65780  0.34580  0.12280  Biso   1.000  C
  C433     1.0000 0.22520  0.02420  0.54620  Biso   1.000  C
  C434     1.0000 0.77480  0.97580  0.45380  Biso   1.000  C
  C435     1.0000 0.54620  0.22520  0.02420  Biso   1.000  C
  C436     1.0000 0.45380  0.77480  0.97580  Biso   1.000  C
  C437     1.0000 0.02420  0.54620  0.22520  Biso   1.000  C
  C438     1.0000 0.97580  0.45380  0.77480  Biso   1.000  C
  C439     1.0000 0.21470  0.03770  0.56270  Biso   1.000  C
  C440     1.0000 0.78530  0.96230  0.43730  Biso   1.000  C
  C441     1.0000 0.56270  0.21470  0.03770  Biso   1.000  C
  C442     1.0000 0.43730  0.78530  0.96230  Biso   1.000  C
  C443     1.0000 0.03770  0.56270  0.21470  Biso   1.000  C
  C444     1.0000 0.96230  0.43730  0.78530  Biso   1.000  C
  C445     1.0000 0.18110  0.08110  0.57510  Biso   1.000  C
  C446     1.0000 0.81890  0.91890  0.42490  Biso   1.000  C
  C447     1.0000 0.57510  0.18110  0.08110  Biso   1.000  C
  C448     1.0000 0.42490  0.81890  0.91890  Biso   1.000  C
  C449     1.0000 0.08110  0.57510  0.18110  Biso   1.000  C
  C450     1.0000 0.91890  0.42490  0.81890  Biso   1.000  C
  H181     1.0000 0.16480  0.10160  0.57330  Biso   1.000  H
  H182     1.0000 0.83520  0.89840  0.42670  Biso   1.000  H
  H183     1.0000 0.57330  0.16480  0.10160  Biso   1.000  H
  H184     1.0000 0.42670  0.83520  0.89840  Biso   1.000  H
  H185     1.0000 0.10160  0.57330  0.16480  Biso   1.000  H
  H186     1.0000 0.89840  0.42670  0.83520  Biso   1.000  H
  C451     1.0000 0.18990  0.06890  0.55990  Biso   1.000  C
  C452     1.0000 0.81010  0.93110  0.44010  Biso   1.000  C
  C453     1.0000 0.55990  0.18990  0.06890  Biso   1.000  C
  C454     1.0000 0.44010  0.81010  0.93110  Biso   1.000  C
  C455     1.0000 0.06890  0.55990  0.18990  Biso   1.000  C
  C456     1.0000 0.93110  0.44010  0.81010  Biso   1.000  C
  H187     1.0000 0.18000  0.07960  0.54830  Biso   1.000  H
  H188     1.0000 0.82000  0.92040  0.45170  Biso   1.000  H
  H189     1.0000 0.54830  0.18000  0.07960  Biso   1.000  H
  H190     1.0000 0.45170  0.82000  0.92040  Biso   1.000  H
  H191     1.0000 0.07960  0.54830  0.18000  Biso   1.000  H
  H192     1.0000 0.92040  0.45170  0.82000  Biso   1.000  H
  C457     1.0000 0.16950  0.11150  0.62650  Biso   1.000  C
  C458     1.0000 0.83050  0.88850  0.37350  Biso   1.000  C
  C459     1.0000 0.62650  0.16950  0.11150  Biso   1.000  C
  C460     1.0000 0.37350  0.83050  0.88850  Biso   1.000  C
  C461     1.0000 0.11150  0.62650  0.16950  Biso   1.000  C
  C462     1.0000 0.88850  0.37350  0.83050  Biso   1.000  C
  C463     1.0000 0.18790  0.10490  0.63390  Biso   1.000  C
  C464     1.0000 0.81210  0.89510  0.36610  Biso   1.000  C
  C465     1.0000 0.63390  0.18790  0.10490  Biso   1.000  C
  C466     1.0000 0.36610  0.81210  0.89510  Biso   1.000  C
  C467     1.0000 0.10490  0.63390  0.18790  Biso   1.000  C
  C468     1.0000 0.89510  0.36610  0.81210  Biso   1.000  C
  H193     1.0000 0.20690  0.08630  0.63440  Biso   1.000  H
  H194     1.0000 0.79310  0.91370  0.36560  Biso   1.000  H
  H195     1.0000 0.63440  0.20690  0.08630  Biso   1.000  H
  H196     1.0000 0.36560  0.79310  0.91370  Biso   1.000  H
  H197     1.0000 0.08630  0.63440  0.20690  Biso   1.000  H
  H198     1.0000 0.91370  0.36560  0.79310  Biso   1.000  H
  C469     1.0000 0.17900  0.12700  0.63900  Biso   1.000  C
  C470     1.0000 0.82100  0.87300  0.36100  Biso   1.000  C
  C471     1.0000 0.63900  0.17900  0.12700  Biso   1.000  C
  C472     1.0000 0.36100  0.82100  0.87300  Biso   1.000  C
  C473     1.0000 0.12700  0.63900  0.17900  Biso   1.000  C
  C474     1.0000 0.87300  0.36100  0.82100  Biso   1.000  C
  C475     1.0000 0.15160  0.15360  0.63860  Biso   1.000  C
  C476     1.0000 0.84840  0.84640  0.36140  Biso   1.000  C
  C477     1.0000 0.63860  0.15160  0.15360  Biso   1.000  C
  C478     1.0000 0.36140  0.84840  0.84640  Biso   1.000  C
  C479     1.0000 0.15360  0.63860  0.15160  Biso   1.000  C
  C480     1.0000 0.84640  0.36140  0.84840  Biso   1.000  C
  H199     1.0000 0.14550  0.16810  0.64250  Biso   1.000  H
  H200     1.0000 0.85450  0.83190  0.35750  Biso   1.000  H
  H201     1.0000 0.64250  0.14550  0.16810  Biso   1.000  H
  H202     1.0000 0.35750  0.85450  0.83190  Biso   1.000  H
  H203     1.0000 0.16810  0.64250  0.14550  Biso   1.000  H
  H204     1.0000 0.83190  0.35750  0.85450  Biso   1.000  H
  C481     1.0000 0.13320  0.16020  0.63120  Biso   1.000  C
  C482     1.0000 0.86680  0.83980  0.36880  Biso   1.000  C
  C483     1.0000 0.63120  0.13320  0.16020  Biso   1.000  C
  C484     1.0000 0.36880  0.86680  0.83980  Biso   1.000  C
  C485     1.0000 0.16020  0.63120  0.13320  Biso   1.000  C
  C486     1.0000 0.83980  0.36880  0.86680  Biso   1.000  C
  C487     1.0000 0.14210  0.13910  0.62510  Biso   1.000  C
  C488     1.0000 0.85790  0.86090  0.37490  Biso   1.000  C
  C489     1.0000 0.62510  0.14210  0.13910  Biso   1.000  C
  C490     1.0000 0.37490  0.85790  0.86090  Biso   1.000  C
  C491     1.0000 0.13910  0.62510  0.14210  Biso   1.000  C
  C492     1.0000 0.86090  0.37490  0.85790  Biso   1.000  C
  H205     1.0000 0.12940  0.14330  0.62070  Biso   1.000  H
  H206     1.0000 0.87060  0.85670  0.37930  Biso   1.000  H
  H207     1.0000 0.62070  0.12940  0.14330  Biso   1.000  H
  H208     1.0000 0.37930  0.87060  0.85670  Biso   1.000  H
  H209     1.0000 0.14330  0.62070  0.12940  Biso   1.000  H
  H210     1.0000 0.85670  0.37930  0.87060  Biso   1.000  H
  C493     1.0000 0.06070  0.24370  0.61570  Biso   1.000  C
  C494     1.0000 0.93930  0.75630  0.38430  Biso   1.000  C
  C495     1.0000 0.61570  0.06070  0.24370  Biso   1.000  C
  C496     1.0000 0.38430  0.93930  0.75630  Biso   1.000  C
  C497     1.0000 0.24370  0.61570  0.06070  Biso   1.000  C
  C498     1.0000 0.75630  0.38430  0.93930  Biso   1.000  C
  C499     1.0000 0.04320  0.25020  0.60720  Biso   1.000  C
  C500     1.0000 0.95680  0.74980  0.39280  Biso   1.000  C
  C501     1.0000 0.60720  0.04320  0.25020  Biso   1.000  C
  C502     1.0000 0.39280  0.95680  0.74980  Biso   1.000  C
  C503     1.0000 0.25020  0.60720  0.04320  Biso   1.000  C
  C504     1.0000 0.74980  0.39280  0.95680  Biso   1.000  C
  H211     1.0000 0.04920  0.23530  0.60380  Biso   1.000  H
  H212     1.0000 0.95080  0.76470  0.39620  Biso   1.000  H
  H213     1.0000 0.60380  0.04920  0.23530  Biso   1.000  H
  H214     1.0000 0.39620  0.95080  0.76470  Biso   1.000  H
  H215     1.0000 0.23530  0.60380  0.04920  Biso   1.000  H
  H216     1.0000 0.76470  0.39620  0.95080  Biso   1.000  H
  C505     1.0000 0.01760  0.27860  0.60260  Biso   1.000  C
  C506     1.0000 0.98240  0.72140  0.39740  Biso   1.000  C
  C507     1.0000 0.60260  0.01760  0.27860  Biso   1.000  C
  C508     1.0000 0.39740  0.98240  0.72140  Biso   1.000  C
  C509     1.0000 0.27860  0.60260  0.01760  Biso   1.000  C
  C510     1.0000 0.72140  0.39740  0.98240  Biso   1.000  C
  H217     1.0000 0.00560  0.28320  0.59680  Biso   1.000  H
  H218     1.0000 0.99440  0.71680  0.40320  Biso   1.000  H
  H219     1.0000 0.59680  0.00560  0.28320  Biso   1.000  H
  H220     1.0000 0.40320  0.99440  0.71680  Biso   1.000  H
  H221     1.0000 0.28320  0.59680  0.00560  Biso   1.000  H
  H222     1.0000 0.71680  0.40320  0.99440  Biso   1.000  H
  C511     1.0000 0.00860  0.30160  0.60660  Biso   1.000  C
  C512     1.0000 0.99140  0.69840  0.39340  Biso   1.000  C
  C513     1.0000 0.60660  0.00860  0.30160  Biso   1.000  C
  C514     1.0000 0.39340  0.99140  0.69840  Biso   1.000  C
  C515     1.0000 0.30160  0.60660  0.00860  Biso   1.000  C
  C516     1.0000 0.69840  0.39340  0.99140  Biso   1.000  C
  C517     1.0000 0.02610  0.29610  0.61410  Biso   1.000  C
  C518     1.0000 0.97390  0.70390  0.38590  Biso   1.000  C
  C519     1.0000 0.61410  0.02610  0.29610  Biso   1.000  C
  C520     1.0000 0.38590  0.97390  0.70390  Biso   1.000  C
  C521     1.0000 0.29610  0.61410  0.02610  Biso   1.000  C
  C522     1.0000 0.70390  0.38590  0.97390  Biso   1.000  C
  H223     1.0000 0.02090  0.31080  0.61660  Biso   1.000  H
  H224     1.0000 0.97910  0.68920  0.38340  Biso   1.000  H
  H225     1.0000 0.61660  0.02090  0.31080  Biso   1.000  H
  H226     1.0000 0.38340  0.97910  0.68920  Biso   1.000  H
  H227     1.0000 0.31080  0.61660  0.02090  Biso   1.000  H
  H228     1.0000 0.68920  0.38340  0.97910  Biso   1.000  H
  C523     1.0000 0.05260  0.26660  0.61860  Biso   1.000  C
  C524     1.0000 0.94740  0.73340  0.38140  Biso   1.000  C
  C525     1.0000 0.61860  0.05260  0.26660  Biso   1.000  C
  C526     1.0000 0.38140  0.94740  0.73340  Biso   1.000  C
  C527     1.0000 0.26660  0.61860  0.05260  Biso   1.000  C
  C528     1.0000 0.73340  0.38140  0.94740  Biso   1.000  C
  H229     1.0000 0.06450  0.26300  0.62350  Biso   1.000  H
  H230     1.0000 0.93550  0.73700  0.37650  Biso   1.000  H
  H231     1.0000 0.62350  0.06450  0.26300  Biso   1.000  H
  H232     1.0000 0.37650  0.93550  0.73700  Biso   1.000  H
  H233     1.0000 0.26300  0.62350  0.06450  Biso   1.000  H
  H234     1.0000 0.73700  0.37650  0.93550  Biso   1.000  H
  C529     1.0000 0.24040  0.11640  0.64340  Biso   1.000  C
  C530     1.0000 0.75960  0.88360  0.35660  Biso   1.000  C
  C531     1.0000 0.64340  0.24040  0.11640  Biso   1.000  C
  C532     1.0000 0.35660  0.75960  0.88360  Biso   1.000  C
  C533     1.0000 0.11640  0.64340  0.24040  Biso   1.000  C
  C534     1.0000 0.88360  0.35660  0.75960  Biso   1.000  C
  C535     1.0000 0.28880  0.08280  0.64780  Biso   1.000  C
  C536     1.0000 0.71120  0.91720  0.35220  Biso   1.000  C
  C537     1.0000 0.64780  0.28880  0.08280  Biso   1.000  C
  C538     1.0000 0.35220  0.71120  0.91720  Biso   1.000  C
  C539     1.0000 0.08280  0.64780  0.28880  Biso   1.000  C
  C540     1.0000 0.91720  0.35220  0.71120  Biso   1.000  C
  H235     1.0000 0.30470  0.06270  0.65350  Biso   1.000  H
  H236     1.0000 0.69530  0.93730  0.34650  Biso   1.000  H
  H237     1.0000 0.65350  0.30470  0.06270  Biso   1.000  H
  H238     1.0000 0.34650  0.69530  0.93730  Biso   1.000  H
  H239     1.0000 0.06270  0.65350  0.30470  Biso   1.000  H
  H240     1.0000 0.93730  0.34650  0.69530  Biso   1.000  H
  C541     1.0000 0.26410  0.08610  0.65210  Biso   1.000  C
  C542     1.0000 0.73590  0.91390  0.34790  Biso   1.000  C
  C543     1.0000 0.65210  0.26410  0.08610  Biso   1.000  C
  C544     1.0000 0.34790  0.73590  0.91390  Biso   1.000  C
  C545     1.0000 0.08610  0.65210  0.26410  Biso   1.000  C
  C546     1.0000 0.91390  0.34790  0.73590  Biso   1.000  C
  H241     1.0000 0.26300  0.06830  0.66080  Biso   1.000  H
  H242     1.0000 0.73700  0.93170  0.33920  Biso   1.000  H
  H243     1.0000 0.66080  0.26300  0.06830  Biso   1.000  H
  H244     1.0000 0.33920  0.73700  0.93170  Biso   1.000  H
  H245     1.0000 0.06830  0.66080  0.26300  Biso   1.000  H
  H246     1.0000 0.93170  0.33920  0.73700  Biso   1.000  H
  C547     1.0000 0.22890  0.02090  0.58090  Biso   1.000  C
  C548     1.0000 0.77110  0.97910  0.41910  Biso   1.000  C
  C549     1.0000 0.58090  0.22890  0.02090  Biso   1.000  C
  C550     1.0000 0.41910  0.77110  0.97910  Biso   1.000  C
  C551     1.0000 0.02090  0.58090  0.22890  Biso   1.000  C
  C552     1.0000 0.97910  0.41910  0.77110  Biso   1.000  C
  H247     1.0000 0.24510  0.00050  0.58300  Biso   1.000  H
  H248     1.0000 0.75490  0.99950  0.41700  Biso   1.000  H
  H249     1.0000 0.58300  0.24510  0.00050  Biso   1.000  H
  H250     1.0000 0.41700  0.75490  0.99950  Biso   1.000  H
  H251     1.0000 0.00050  0.58300  0.24510  Biso   1.000  H
  H252     1.0000 0.99950  0.41700  0.75490  Biso   1.000  H
  C553     1.0000 0.22020  0.03420  0.59520  Biso   1.000  C
  C554     1.0000 0.77980  0.96580  0.40480  Biso   1.000  C
  C555     1.0000 0.59520  0.22020  0.03420  Biso   1.000  C
  C556     1.0000 0.40480  0.77980  0.96580  Biso   1.000  C
  C557     1.0000 0.03420  0.59520  0.22020  Biso   1.000  C
  C558     1.0000 0.96580  0.40480  0.77980  Biso   1.000  C
  H253     1.0000 0.22970  0.02270  0.60770  Biso   1.000  H
  H254     1.0000 0.77030  0.97730  0.39230  Biso   1.000  H
  H255     1.0000 0.60770  0.22970  0.02270  Biso   1.000  H
  H256     1.0000 0.39230  0.77030  0.97730  Biso   1.000  H
  H257     1.0000 0.02270  0.60770  0.22970  Biso   1.000  H
  H258     1.0000 0.97730  0.39230  0.77030  Biso   1.000  H
  C559     1.0000 0.19630  0.06430  0.59230  Biso   1.000  C
  C560     1.0000 0.80370  0.93570  0.40770  Biso   1.000  C
  C561     1.0000 0.59230  0.19630  0.06430  Biso   1.000  C
  C562     1.0000 0.40770  0.80370  0.93570  Biso   1.000  C
  C563     1.0000 0.06430  0.59230  0.19630  Biso   1.000  C
  C564     1.0000 0.93570  0.40770  0.80370  Biso   1.000  C
  C565     1.0000 0.19950  0.12250  0.64250  Biso   1.000  C
  C566     1.0000 0.80050  0.87750  0.35750  Biso   1.000  C
  C567     1.0000 0.64250  0.19950  0.12250  Biso   1.000  C
  C568     1.0000 0.35750  0.80050  0.87750  Biso   1.000  C
  C569     1.0000 0.12250  0.64250  0.19950  Biso   1.000  C
  C570     1.0000 0.87750  0.35750  0.80050  Biso   1.000  C
  C571     1.0000 0.21800  0.11900  0.64400  Biso   1.000  C
  C572     1.0000 0.78200  0.88100  0.35600  Biso   1.000  C
  C573     1.0000 0.64400  0.21800  0.11900  Biso   1.000  C
  C574     1.0000 0.35600  0.78200  0.88100  Biso   1.000  C
  C575     1.0000 0.11900  0.64400  0.21800  Biso   1.000  C
  C576     1.0000 0.88100  0.35600  0.78200  Biso   1.000  C
  C577     1.0000 0.08630  0.21430  0.62130  Biso   1.000  C
  C578     1.0000 0.91370  0.78570  0.37870  Biso   1.000  C
  C579     1.0000 0.62130  0.08630  0.21430  Biso   1.000  C
  C580     1.0000 0.37870  0.91370  0.78570  Biso   1.000  C
  C581     1.0000 0.21430  0.62130  0.08630  Biso   1.000  C
  C582     1.0000 0.78570  0.37870  0.91370  Biso   1.000  C
  C583     1.0000 0.10770  0.18970  0.62570  Biso   1.000  C
  C584     1.0000 0.89230  0.81030  0.37430  Biso   1.000  C
  C585     1.0000 0.62570  0.10770  0.18970  Biso   1.000  C
  C586     1.0000 0.37430  0.89230  0.81030  Biso   1.000  C
  C587     1.0000 0.18970  0.62570  0.10770  Biso   1.000  C
  C588     1.0000 0.81030  0.37430  0.89230  Biso   1.000  C
  C589     1.0000 0.18790  0.07890  0.60590  Biso   1.000  C
  C590     1.0000 0.81210  0.92110  0.39410  Biso   1.000  C
  C591     1.0000 0.60590  0.18790  0.07890  Biso   1.000  C
  C592     1.0000 0.39410  0.81210  0.92110  Biso   1.000  C
  C593     1.0000 0.07890  0.60590  0.18790  Biso   1.000  C
  C594     1.0000 0.92110  0.39410  0.81210  Biso   1.000  C
  C595     1.0000 0.18030  0.09230  0.61630  Biso   1.000  C
  C596     1.0000 0.81970  0.90770  0.38370  Biso   1.000  C
  C597     1.0000 0.61630  0.18030  0.09230  Biso   1.000  C
  C598     1.0000 0.38370  0.81970  0.90770  Biso   1.000  C
  C599     1.0000 0.09230  0.61630  0.18030  Biso   1.000  C
  C600     1.0000 0.90770  0.38370  0.81970  Biso   1.000  C
  C601     1.0000 0.24150  0.14150  0.63250  Biso   1.000  C
  C602     1.0000 0.75850  0.85850  0.36750  Biso   1.000  C
  C603     1.0000 0.63250  0.24150  0.14150  Biso   1.000  C
  C604     1.0000 0.36750  0.75850  0.85850  Biso   1.000  C
  C605     1.0000 0.14150  0.63250  0.24150  Biso   1.000  C
  C606     1.0000 0.85850  0.36750  0.75850  Biso   1.000  C
  H259     1.0000 0.22470  0.16230  0.62730  Biso   1.000  H
  H260     1.0000 0.77530  0.83770  0.37270  Biso   1.000  H
  H261     1.0000 0.62730  0.22470  0.16230  Biso   1.000  H
  H262     1.0000 0.37270  0.77530  0.83770  Biso   1.000  H
  H263     1.0000 0.16230  0.62730  0.22470  Biso   1.000  H
  H264     1.0000 0.83770  0.37270  0.77530  Biso   1.000  H
  C607     1.0000 0.26630  0.13830  0.62830  Biso   1.000  C
  C608     1.0000 0.73370  0.86170  0.37170  Biso   1.000  C
  C609     1.0000 0.62830  0.26630  0.13830  Biso   1.000  C
  C610     1.0000 0.37170  0.73370  0.86170  Biso   1.000  C
  C611     1.0000 0.13830  0.62830  0.26630  Biso   1.000  C
  C612     1.0000 0.86170  0.37170  0.73370  Biso   1.000  C
  H265     1.0000 0.26630  0.15670  0.62040  Biso   1.000  H
  H266     1.0000 0.73370  0.84330  0.37960  Biso   1.000  H
  H267     1.0000 0.62040  0.26630  0.15670  Biso   1.000  H
  H268     1.0000 0.37960  0.73370  0.84330  Biso   1.000  H
  H269     1.0000 0.15670  0.62040  0.26630  Biso   1.000  H
  H270     1.0000 0.84330  0.37960  0.73370  Biso   1.000  H
  C613     1.0000 0.29090  0.10890  0.63490  Biso   1.000  C
  C614     1.0000 0.70910  0.89110  0.36510  Biso   1.000  C
  C615     1.0000 0.63490  0.29090  0.10890  Biso   1.000  C
  C616     1.0000 0.36510  0.70910  0.89110  Biso   1.000  C
  C617     1.0000 0.10890  0.63490  0.29090  Biso   1.000  C
  C618     1.0000 0.89110  0.36510  0.70910  Biso   1.000  C
  C619     1.0000 0.25040  0.08740  0.41340  Biso   1.000  C
  C620     1.0000 0.74960  0.91260  0.58660  Biso   1.000  C
  C621     1.0000 0.41340  0.25040  0.08740  Biso   1.000  C
  C622     1.0000 0.58660  0.74960  0.91260  Biso   1.000  C
  C623     1.0000 0.08740  0.41340  0.25040  Biso   1.000  C
  C624     1.0000 0.91260  0.58660  0.74960  Biso   1.000  C
  C625     1.0000 0.22630  0.14430  0.38630  Biso   1.000  C
  C626     1.0000 0.77370  0.85570  0.61370  Biso   1.000  C
  C627     1.0000 0.38630  0.22630  0.14430  Biso   1.000  C
  C628     1.0000 0.61370  0.77370  0.85570  Biso   1.000  C
  C629     1.0000 0.14430  0.38630  0.22630  Biso   1.000  C
  C630     1.0000 0.85570  0.61370  0.77370  Biso   1.000  C
  H271     1.0000 0.20960  0.16330  0.38760  Biso   1.000  H
  H272     1.0000 0.79040  0.83670  0.61240  Biso   1.000  H
  H273     1.0000 0.38760  0.20960  0.16330  Biso   1.000  H
  H274     1.0000 0.61240  0.79040  0.83670  Biso   1.000  H
  H275     1.0000 0.16330  0.38760  0.20960  Biso   1.000  H
  H276     1.0000 0.83670  0.61240  0.79040  Biso   1.000  H
  C631     1.0000 0.22630  0.11630  0.41430  Biso   1.000  C
  C632     1.0000 0.77370  0.88370  0.58570  Biso   1.000  C
  C633     1.0000 0.41430  0.22630  0.11630  Biso   1.000  C
  C634     1.0000 0.58570  0.77370  0.88370  Biso   1.000  C
  C635     1.0000 0.11630  0.41430  0.22630  Biso   1.000  C
  C636     1.0000 0.88370  0.58570  0.77370  Biso   1.000  C
  H277     1.0000 0.20940  0.11710  0.43370  Biso   1.000  H
  H278     1.0000 0.79060  0.88290  0.56630  Biso   1.000  H
  H279     1.0000 0.43370  0.20940  0.11710  Biso   1.000  H
  H280     1.0000 0.56630  0.79060  0.88290  Biso   1.000  H
  H281     1.0000 0.11710  0.43370  0.20940  Biso   1.000  H
  H282     1.0000 0.88290  0.56630  0.79060  Biso   1.000  H
  C637     1.0000 0.25080  0.22380  0.27780  Biso   1.000  C
  C638     1.0000 0.74920  0.77620  0.72220  Biso   1.000  C
  C639     1.0000 0.27780  0.25080  0.22380  Biso   1.000  C
  C640     1.0000 0.72220  0.74920  0.77620  Biso   1.000  C
  C641     1.0000 0.22380  0.27780  0.25080  Biso   1.000  C
  C642     1.0000 0.77620  0.72220  0.74920  Biso   1.000  C
  C643     1.0000 0.27880  0.22280  0.25080  Biso   1.000  C
  C644     1.0000 0.72120  0.77720  0.74920  Biso   1.000  C
  C645     1.0000 0.25080  0.27880  0.22280  Biso   1.000  C
  C646     1.0000 0.74920  0.72120  0.77720  Biso   1.000  C
  C647     1.0000 0.22280  0.25080  0.27880  Biso   1.000  C
  C648     1.0000 0.77720  0.74920  0.72120  Biso   1.000  C
  H283     1.0000 0.29720  0.20470  0.25050  Biso   1.000  H
  H284     1.0000 0.70280  0.79530  0.74950  Biso   1.000  H
  H285     1.0000 0.25050  0.29720  0.20470  Biso   1.000  H
  H286     1.0000 0.74950  0.70280  0.79530  Biso   1.000  H
  H287     1.0000 0.20470  0.25050  0.29720  Biso   1.000  H
  H288     1.0000 0.79530  0.74950  0.70280  Biso   1.000  H
  C649     1.0000 0.25060  0.14360  0.35760  Biso   1.000  C
  C650     1.0000 0.74940  0.85640  0.64240  Biso   1.000  C
  C651     1.0000 0.35760  0.25060  0.14360  Biso   1.000  C
  C652     1.0000 0.64240  0.74940  0.85640  Biso   1.000  C
  C653     1.0000 0.14360  0.35760  0.25060  Biso   1.000  C
  C654     1.0000 0.85640  0.64240  0.74940  Biso   1.000  C
  C655     1.0000 0.27570  0.08670  0.38370  Biso   1.000  C
  C656     1.0000 0.72430  0.91330  0.61630  Biso   1.000  C
  C657     1.0000 0.38370  0.27570  0.08670  Biso   1.000  C
  C658     1.0000 0.61630  0.72430  0.91330  Biso   1.000  C
  C659     1.0000 0.08670  0.38370  0.27570  Biso   1.000  C
  C660     1.0000 0.91330  0.61630  0.72430  Biso   1.000  C
  H289     1.0000 0.29250  0.06690  0.38310  Biso   1.000  H
  H290     1.0000 0.70750  0.93310  0.61690  Biso   1.000  H
  H291     1.0000 0.38310  0.29250  0.06690  Biso   1.000  H
  H292     1.0000 0.61690  0.70750  0.93310  Biso   1.000  H
  H293     1.0000 0.06690  0.38310  0.29250  Biso   1.000  H
  H294     1.0000 0.93310  0.61690  0.70750  Biso   1.000  H
  C661     1.0000 0.27580  0.11380  0.35680  Biso   1.000  C
  C662     1.0000 0.72420  0.88620  0.64320  Biso   1.000  C
  C663     1.0000 0.35680  0.27580  0.11380  Biso   1.000  C
  C664     1.0000 0.64320  0.72420  0.88620  Biso   1.000  C
  C665     1.0000 0.11380  0.35680  0.27580  Biso   1.000  C
  C666     1.0000 0.88620  0.64320  0.72420  Biso   1.000  C
  H295     1.0000 0.29260  0.11340  0.33710  Biso   1.000  H
  H296     1.0000 0.70740  0.88660  0.66290  Biso   1.000  H
  H297     1.0000 0.33710  0.29260  0.11340  Biso   1.000  H
  H298     1.0000 0.66290  0.70740  0.88660  Biso   1.000  H
  H299     1.0000 0.11340  0.33710  0.29260  Biso   1.000  H
  H300     1.0000 0.88660  0.66290  0.70740  Biso   1.000  H
  C667     1.0000 0.25070  0.19470  0.30670  Biso   1.000  C
  C668     1.0000 0.74930  0.80530  0.69330  Biso   1.000  C
  C669     1.0000 0.30670  0.25070  0.19470  Biso   1.000  C
  C670     1.0000 0.69330  0.74930  0.80530  Biso   1.000  C
  C671     1.0000 0.19470  0.30670  0.25070  Biso   1.000  C
  C672     1.0000 0.80530  0.69330  0.74930  Biso   1.000  C
  C673     1.0000 0.25070  0.17170  0.32970  Biso   1.000  C
  C674     1.0000 0.74930  0.82830  0.67030  Biso   1.000  C
  C675     1.0000 0.32970  0.25070  0.17170  Biso   1.000  C
  C676     1.0000 0.67030  0.74930  0.82830  Biso   1.000  C
  C677     1.0000 0.17170  0.32970  0.25070  Biso   1.000  C
  C678     1.0000 0.82830  0.67030  0.74930  Biso   1.000  C
  C679     1.0000 0.25030  0.05830  0.44230  Biso   1.000  C
  C680     1.0000 0.74970  0.94170  0.55770  Biso   1.000  C
  C681     1.0000 0.44230  0.25030  0.05830  Biso   1.000  C
  C682     1.0000 0.55770  0.74970  0.94170  Biso   1.000  C
  C683     1.0000 0.05830  0.44230  0.25030  Biso   1.000  C
  C684     1.0000 0.94170  0.55770  0.74970  Biso   1.000  C
  C685     1.0000 0.87400  0.02100  0.69900  Biso   1.000  C
  C686     1.0000 0.12600  0.97900  0.30100  Biso   1.000  C
  C687     1.0000 0.69900  0.87400  0.02100  Biso   1.000  C
  C688     1.0000 0.30100  0.12600  0.97900  Biso   1.000  C
  C689     1.0000 0.02100  0.69900  0.87400  Biso   1.000  C
  C690     1.0000 0.97900  0.30100  0.12600  Biso   1.000  C
  C691     1.0000 0.89690  0.96790  0.73190  Biso   1.000  C
  C692     1.0000 0.10310  0.03210  0.26810  Biso   1.000  C
  C693     1.0000 0.73190  0.89690  0.96790  Biso   1.000  C
  C694     1.0000 0.26810  0.10310  0.03210  Biso   1.000  C
  C695     1.0000 0.96790  0.73190  0.89690  Biso   1.000  C
  C696     1.0000 0.03210  0.26810  0.10310  Biso   1.000  C
  H301     1.0000 0.91470  0.94790  0.73440  Biso   1.000  H
  H302     1.0000 0.08530  0.05210  0.26560  Biso   1.000  H
  H303     1.0000 0.73440  0.91470  0.94790  Biso   1.000  H
  H304     1.0000 0.26560  0.08530  0.05210  Biso   1.000  H
  H305     1.0000 0.94790  0.73440  0.91470  Biso   1.000  H
  H306     1.0000 0.05210  0.26560  0.08530  Biso   1.000  H
  C697     1.0000 0.90010  0.99210  0.70210  Biso   1.000  C
  C698     1.0000 0.09990  0.00790  0.29790  Biso   1.000  C
  C699     1.0000 0.70210  0.90010  0.99210  Biso   1.000  C
  C700     1.0000 0.29790  0.09990  0.00790  Biso   1.000  C
  C701     1.0000 0.99210  0.70210  0.90010  Biso   1.000  C
  C702     1.0000 0.00790  0.29790  0.09990  Biso   1.000  C
  H307     1.0000 0.91890  0.98920  0.68470  Biso   1.000  H
  H308     1.0000 0.08110  0.01080  0.31530  Biso   1.000  H
  H309     1.0000 0.68470  0.91890  0.98920  Biso   1.000  H
  H310     1.0000 0.31530  0.08110  0.01080  Biso   1.000  H
  H311     1.0000 0.98920  0.68470  0.91890  Biso   1.000  H
  H312     1.0000 0.01080  0.31530  0.08110  Biso   1.000  H
  C703     1.0000 0.86740  0.89640  0.84040  Biso   1.000  C
  C704     1.0000 0.13260  0.10360  0.15960  Biso   1.000  C
  C705     1.0000 0.84040  0.86740  0.89640  Biso   1.000  C
  C706     1.0000 0.15960  0.13260  0.10360  Biso   1.000  C
  C707     1.0000 0.89640  0.84040  0.86740  Biso   1.000  C
  C708     1.0000 0.10360  0.15960  0.13260  Biso   1.000  C
  C709     1.0000 0.84040  0.89540  0.86840  Biso   1.000  C
  C710     1.0000 0.15960  0.10460  0.13160  Biso   1.000  C
  C711     1.0000 0.86840  0.84040  0.89540  Biso   1.000  C
  C712     1.0000 0.13160  0.15960  0.10460  Biso   1.000  C
  C713     1.0000 0.89540  0.86840  0.84040  Biso   1.000  C
  C714     1.0000 0.10460  0.13160  0.15960  Biso   1.000  C
  H313     1.0000 0.82130  0.91390  0.86900  Biso   1.000  H
  H314     1.0000 0.17870  0.08610  0.13100  Biso   1.000  H
  H315     1.0000 0.86900  0.82130  0.91390  Biso   1.000  H
  H316     1.0000 0.13100  0.17870  0.08610  Biso   1.000  H
  H317     1.0000 0.91390  0.86900  0.82130  Biso   1.000  H
  H318     1.0000 0.08610  0.13100  0.17870  Biso   1.000  H
  C715     1.0000 0.84570  0.02570  0.72470  Biso   1.000  C
  C716     1.0000 0.15430  0.97430  0.27530  Biso   1.000  C
  C717     1.0000 0.72470  0.84570  0.02570  Biso   1.000  C
  C718     1.0000 0.27530  0.15430  0.97430  Biso   1.000  C
  C719     1.0000 0.02570  0.72470  0.84570  Biso   1.000  C
  C720     1.0000 0.97430  0.27530  0.15430  Biso   1.000  C
  H319     1.0000 0.82780  0.04510  0.72290  Biso   1.000  H
  H320     1.0000 0.17220  0.95490  0.27710  Biso   1.000  H
  H321     1.0000 0.72290  0.82780  0.04510  Biso   1.000  H
  H322     1.0000 0.27710  0.17220  0.95490  Biso   1.000  H
  H323     1.0000 0.04510  0.72290  0.82780  Biso   1.000  H
  H324     1.0000 0.95490  0.27710  0.17220  Biso   1.000  H
  C721     1.0000 0.86860  0.97260  0.75760  Biso   1.000  C
  C722     1.0000 0.13140  0.02740  0.24240  Biso   1.000  C
  C723     1.0000 0.75760  0.86860  0.97260  Biso   1.000  C
  C724     1.0000 0.24240  0.13140  0.02740  Biso   1.000  C
  C725     1.0000 0.97260  0.75760  0.86860  Biso   1.000  C
  C726     1.0000 0.02740  0.24240  0.13140  Biso   1.000  C
  C727     1.0000 0.84250  0.00150  0.75450  Biso   1.000  C
  C728     1.0000 0.15750  0.99850  0.24550  Biso   1.000  C
  C729     1.0000 0.75450  0.84250  0.00150  Biso   1.000  C
  C730     1.0000 0.24550  0.15750  0.99850  Biso   1.000  C
  C731     1.0000 0.00150  0.75450  0.84250  Biso   1.000  C
  C732     1.0000 0.99850  0.24550  0.15750  Biso   1.000  C
  H325     1.0000 0.82360  0.00350  0.77260  Biso   1.000  H
  H326     1.0000 0.17640  0.99650  0.22740  Biso   1.000  H
  H327     1.0000 0.77260  0.82360  0.00350  Biso   1.000  H
  H328     1.0000 0.22740  0.17640  0.99650  Biso   1.000  H
  H329     1.0000 0.00350  0.77260  0.82360  Biso   1.000  H
  H330     1.0000 0.99650  0.22740  0.17640  Biso   1.000  H
  C733     1.0000 0.86700  0.92300  0.81300  Biso   1.000  C
  C734     1.0000 0.13300  0.07700  0.18700  Biso   1.000  C
  C735     1.0000 0.81300  0.86700  0.92300  Biso   1.000  C
  C736     1.0000 0.18700  0.13300  0.07700  Biso   1.000  C
  C737     1.0000 0.92300  0.81300  0.86700  Biso   1.000  C
  C738     1.0000 0.07700  0.18700  0.13300  Biso   1.000  C
  C739     1.0000 0.86740  0.94540  0.78840  Biso   1.000  C
  C740     1.0000 0.13260  0.05460  0.21160  Biso   1.000  C
  C741     1.0000 0.78840  0.86740  0.94540  Biso   1.000  C
  C742     1.0000 0.21160  0.13260  0.05460  Biso   1.000  C
  C743     1.0000 0.94540  0.78840  0.86740  Biso   1.000  C
  C744     1.0000 0.05460  0.21160  0.13260  Biso   1.000  C
  C745     1.0000 0.65970  0.60570  0.63370  Biso   1.000  C
  C746     1.0000 0.34030  0.39430  0.36630  Biso   1.000  C
  C747     1.0000 0.63370  0.65970  0.60570  Biso   1.000  C
  C748     1.0000 0.36630  0.34030  0.39430  Biso   1.000  C
  C749     1.0000 0.60570  0.63370  0.65970  Biso   1.000  C
  C750     1.0000 0.39430  0.36630  0.34030  Biso   1.000  C
  C751     1.0000 0.66070  0.63270  0.60570  Biso   1.000  C
  C752     1.0000 0.33930  0.36730  0.39430  Biso   1.000  C
  C753     1.0000 0.60570  0.66070  0.63270  Biso   1.000  C
  C754     1.0000 0.39430  0.33930  0.36730  Biso   1.000  C
  C755     1.0000 0.63270  0.60570  0.66070  Biso   1.000  C
  C756     1.0000 0.36730  0.39430  0.33930  Biso   1.000  C
  H331     1.0000 0.67990  0.63150  0.58740  Biso   1.000  H
  H332     1.0000 0.32010  0.36850  0.41260  Biso   1.000  H
  H333     1.0000 0.58740  0.67990  0.63150  Biso   1.000  H
  H334     1.0000 0.41260  0.32010  0.36850  Biso   1.000  H
  H335     1.0000 0.63150  0.58740  0.67990  Biso   1.000  H
  H336     1.0000 0.36850  0.41260  0.32010  Biso   1.000  H
  C757     1.0000 0.74180  0.52880  0.63180  Biso   1.000  C
  C758     1.0000 0.25820  0.47120  0.36820  Biso   1.000  C
  C759     1.0000 0.63180  0.74180  0.52880  Biso   1.000  C
  C760     1.0000 0.36820  0.25820  0.47120  Biso   1.000  C
  C761     1.0000 0.52880  0.63180  0.74180  Biso   1.000  C
  C762     1.0000 0.47120  0.36820  0.25820  Biso   1.000  C
  C763     1.0000 0.76820  0.53220  0.60320  Biso   1.000  C
  C764     1.0000 0.23180  0.46780  0.39680  Biso   1.000  C
  C765     1.0000 0.60320  0.76820  0.53220  Biso   1.000  C
  C766     1.0000 0.39680  0.23180  0.46780  Biso   1.000  C
  C767     1.0000 0.53220  0.60320  0.76820  Biso   1.000  C
  C768     1.0000 0.46780  0.39680  0.23180  Biso   1.000  C
  H337     1.0000 0.76590  0.55130  0.58610  Biso   1.000  H
  H338     1.0000 0.23410  0.44870  0.41390  Biso   1.000  H
  H339     1.0000 0.58610  0.76590  0.55130  Biso   1.000  H
  H340     1.0000 0.41390  0.23410  0.44870  Biso   1.000  H
  H341     1.0000 0.55130  0.58610  0.76590  Biso   1.000  H
  H342     1.0000 0.44870  0.41390  0.23410  Biso   1.000  H
  C769     1.0000 0.79780  0.50680  0.60080  Biso   1.000  C
  C770     1.0000 0.20220  0.49320  0.39920  Biso   1.000  C
  C771     1.0000 0.60080  0.79780  0.50680  Biso   1.000  C
  C772     1.0000 0.39920  0.20220  0.49320  Biso   1.000  C
  C773     1.0000 0.50680  0.60080  0.79780  Biso   1.000  C
  C774     1.0000 0.49320  0.39920  0.20220  Biso   1.000  C
  H343     1.0000 0.81530  0.50960  0.58140  Biso   1.000  H
  H344     1.0000 0.18470  0.49040  0.41860  Biso   1.000  H
  H345     1.0000 0.58140  0.81530  0.50960  Biso   1.000  H
  H346     1.0000 0.41860  0.18470  0.49040  Biso   1.000  H
  H347     1.0000 0.50960  0.58140  0.81530  Biso   1.000  H
  H348     1.0000 0.49040  0.41860  0.18470  Biso   1.000  H
  C775     1.0000 0.80200  0.47700  0.62700  Biso   1.000  C
  C776     1.0000 0.19800  0.52300  0.37300  Biso   1.000  C
  C777     1.0000 0.62700  0.80200  0.47700  Biso   1.000  C
  C778     1.0000 0.37300  0.19800  0.52300  Biso   1.000  C
  C779     1.0000 0.47700  0.62700  0.80200  Biso   1.000  C
  C780     1.0000 0.52300  0.37300  0.19800  Biso   1.000  C
  C781     1.0000 0.77560  0.47360  0.65560  Biso   1.000  C
  C782     1.0000 0.22440  0.52640  0.34440  Biso   1.000  C
  C783     1.0000 0.65560  0.77560  0.47360  Biso   1.000  C
  C784     1.0000 0.34440  0.22440  0.52640  Biso   1.000  C
  C785     1.0000 0.47360  0.65560  0.77560  Biso   1.000  C
  C786     1.0000 0.52640  0.34440  0.22440  Biso   1.000  C
  H349     1.0000 0.77760  0.45430  0.67320  Biso   1.000  H
  H350     1.0000 0.22240  0.54570  0.32680  Biso   1.000  H
  H351     1.0000 0.67320  0.77760  0.45430  Biso   1.000  H
  H352     1.0000 0.32680  0.22240  0.54570  Biso   1.000  H
  H353     1.0000 0.45430  0.67320  0.77760  Biso   1.000  H
  H354     1.0000 0.54570  0.32680  0.22240  Biso   1.000  H
  C787     1.0000 0.74600  0.49900  0.65800  Biso   1.000  C
  C788     1.0000 0.25400  0.50100  0.34200  Biso   1.000  C
  C789     1.0000 0.65800  0.74600  0.49900  Biso   1.000  C
  C790     1.0000 0.34200  0.25400  0.50100  Biso   1.000  C
  C791     1.0000 0.49900  0.65800  0.74600  Biso   1.000  C
  C792     1.0000 0.50100  0.34200  0.25400  Biso   1.000  C
  H355     1.0000 0.72790  0.49650  0.67770  Biso   1.000  H
  H356     1.0000 0.27210  0.50350  0.32230  Biso   1.000  H
  H357     1.0000 0.67770  0.72790  0.49650  Biso   1.000  H
  H358     1.0000 0.32230  0.27210  0.50350  Biso   1.000  H
  H359     1.0000 0.49650  0.67770  0.72790  Biso   1.000  H
  H360     1.0000 0.50350  0.32230  0.27210  Biso   1.000  H
  C793     1.0000 0.68790  0.57690  0.63490  Biso   1.000  C
  C794     1.0000 0.31210  0.42310  0.36510  Biso   1.000  C
  C795     1.0000 0.63490  0.68790  0.57690  Biso   1.000  C
  C796     1.0000 0.36510  0.31210  0.42310  Biso   1.000  C
  C797     1.0000 0.57690  0.63490  0.68790  Biso   1.000  C
  C798     1.0000 0.42310  0.36510  0.31210  Biso   1.000  C
  C799     1.0000 0.71230  0.55430  0.63430  Biso   1.000  C
  C800     1.0000 0.28770  0.44570  0.36570  Biso   1.000  C
  C801     1.0000 0.63430  0.71230  0.55430  Biso   1.000  C
  C802     1.0000 0.36570  0.28770  0.44570  Biso   1.000  C
  C803     1.0000 0.55430  0.63430  0.71230  Biso   1.000  C
  C804     1.0000 0.44570  0.36570  0.28770  Biso   1.000  C
  C805     1.0000 0.03720  0.03620  0.58120  Biso   1.000  C
  C806     1.0000 0.96280  0.96380  0.41880  Biso   1.000  C
  C807     1.0000 0.58120  0.03720  0.03620  Biso   1.000  C
  C808     1.0000 0.41880  0.96280  0.96380  Biso   1.000  C
  C809     1.0000 0.03620  0.58120  0.03720  Biso   1.000  C
  C810     1.0000 0.96380  0.41880  0.96280  Biso   1.000  C
  H361     1.0000 0.04890  0.01560  0.59040  Biso   1.000  H
  H362     1.0000 0.95110  0.98440  0.40960  Biso   1.000  H
  H363     1.0000 0.59040  0.04890  0.01560  Biso   1.000  H
  H364     1.0000 0.40960  0.95110  0.98440  Biso   1.000  H
  H365     1.0000 0.01560  0.59040  0.04890  Biso   1.000  H
  H366     1.0000 0.98440  0.40960  0.95110  Biso   1.000  H
  C811     1.0000 0.00760  0.04660  0.58660  Biso   1.000  C
  C812     1.0000 0.99240  0.95340  0.41340  Biso   1.000  C
  C813     1.0000 0.58660  0.00760  0.04660  Biso   1.000  C
  C814     1.0000 0.41340  0.99240  0.95340  Biso   1.000  C
  C815     1.0000 0.04660  0.58660  0.00760  Biso   1.000  C
  C816     1.0000 0.95340  0.41340  0.99240  Biso   1.000  C
  H367     1.0000 0.00010  0.03120  0.60080  Biso   1.000  H
  H368     1.0000 0.99990  0.96880  0.39920  Biso   1.000  H
  H369     1.0000 0.60080  0.00010  0.03120  Biso   1.000  H
  H370     1.0000 0.39920  0.99990  0.96880  Biso   1.000  H
  H371     1.0000 0.03120  0.60080  0.00010  Biso   1.000  H
  H372     1.0000 0.96880  0.39920  0.99990  Biso   1.000  H
  C817     1.0000 0.98840  0.07840  0.57340  Biso   1.000  C
  C818     1.0000 0.01160  0.92160  0.42660  Biso   1.000  C
  C819     1.0000 0.57340  0.98840  0.07840  Biso   1.000  C
  C820     1.0000 0.42660  0.01160  0.92160  Biso   1.000  C
  C821     1.0000 0.07840  0.57340  0.98840  Biso   1.000  C
  C822     1.0000 0.92160  0.42660  0.01160  Biso   1.000  C
  C823     1.0000 0.99980  0.09980  0.55380  Biso   1.000  C
  C824     1.0000 0.00020  0.90020  0.44620  Biso   1.000  C
  C825     1.0000 0.55380  0.99980  0.09980  Biso   1.000  C
  C826     1.0000 0.44620  0.00020  0.90020  Biso   1.000  C
  C827     1.0000 0.09980  0.55380  0.99980  Biso   1.000  C
  C828     1.0000 0.90020  0.44620  0.00020  Biso   1.000  C
  H373     1.0000 0.98740  0.12150  0.54450  Biso   1.000  H
  H374     1.0000 0.01260  0.87850  0.45550  Biso   1.000  H
  H375     1.0000 0.54450  0.98740  0.12150  Biso   1.000  H
  H376     1.0000 0.45550  0.01260  0.87850  Biso   1.000  H
  H377     1.0000 0.12150  0.54450  0.98740  Biso   1.000  H
  H378     1.0000 0.87850  0.45550  0.01260  Biso   1.000  H
  C829     1.0000 0.02940  0.09040  0.54740  Biso   1.000  C
  C830     1.0000 0.97060  0.90960  0.45260  Biso   1.000  C
  C831     1.0000 0.54740  0.02940  0.09040  Biso   1.000  C
  C832     1.0000 0.45260  0.97060  0.90960  Biso   1.000  C
  C833     1.0000 0.09040  0.54740  0.02940  Biso   1.000  C
  C834     1.0000 0.90960  0.45260  0.97060  Biso   1.000  C
  H379     1.0000 0.03670  0.10590  0.53330  Biso   1.000  H
  H380     1.0000 0.96330  0.89410  0.46670  Biso   1.000  H
  H381     1.0000 0.53330  0.03670  0.10590  Biso   1.000  H
  H382     1.0000 0.46670  0.96330  0.89410  Biso   1.000  H
  H383     1.0000 0.10590  0.53330  0.03670  Biso   1.000  H
  H384     1.0000 0.89410  0.46670  0.96330  Biso   1.000  H
  C835     1.0000 0.04860  0.05860  0.56060  Biso   1.000  C
  C836     1.0000 0.95140  0.94140  0.43940  Biso   1.000  C
  C837     1.0000 0.56060  0.04860  0.05860  Biso   1.000  C
  C838     1.0000 0.43940  0.95140  0.94140  Biso   1.000  C
  C839     1.0000 0.05860  0.56060  0.04860  Biso   1.000  C
  C840     1.0000 0.94140  0.43940  0.95140  Biso   1.000  C
  C841     1.0000 0.10530  0.01830  0.55230  Biso   1.000  C
  C842     1.0000 0.89470  0.98170  0.44770  Biso   1.000  C
  C843     1.0000 0.55230  0.10530  0.01830  Biso   1.000  C
  C844     1.0000 0.44770  0.89470  0.98170  Biso   1.000  C
  C845     1.0000 0.01830  0.55230  0.10530  Biso   1.000  C
  C846     1.0000 0.98170  0.44770  0.89470  Biso   1.000  C
  H385     1.0000 0.10100  0.00570  0.55630  Biso   1.000  H
  H386     1.0000 0.89900  0.99430  0.44370  Biso   1.000  H
  H387     1.0000 0.55630  0.10100  0.00570  Biso   1.000  H
  H388     1.0000 0.44370  0.89900  0.99430  Biso   1.000  H
  H389     1.0000 0.00570  0.55630  0.10100  Biso   1.000  H
  H390     1.0000 0.99430  0.44370  0.89900  Biso   1.000  H
  C847     1.0000 0.08120  0.04820  0.55220  Biso   1.000  C
  C848     1.0000 0.91880  0.95180  0.44780  Biso   1.000  C
  C849     1.0000 0.55220  0.08120  0.04820  Biso   1.000  C
  C850     1.0000 0.44780  0.91880  0.95180  Biso   1.000  C
  C851     1.0000 0.04820  0.55220  0.08120  Biso   1.000  C
  C852     1.0000 0.95180  0.44780  0.91880  Biso   1.000  C
  C853     1.0000 0.08770  0.06770  0.54570  Biso   1.000  C
  C854     1.0000 0.91230  0.93230  0.45430  Biso   1.000  C
  C855     1.0000 0.54570  0.08770  0.06770  Biso   1.000  C
  C856     1.0000 0.45430  0.91230  0.93230  Biso   1.000  C
  C857     1.0000 0.06770  0.54570  0.08770  Biso   1.000  C
  C858     1.0000 0.93230  0.45430  0.91230  Biso   1.000  C
  H391     1.0000 0.07230  0.08730  0.54570  Biso   1.000  H
  H392     1.0000 0.92770  0.91270  0.45430  Biso   1.000  H
  H393     1.0000 0.54570  0.07230  0.08730  Biso   1.000  H
  H394     1.0000 0.45430  0.92770  0.91270  Biso   1.000  H
  H395     1.0000 0.08730  0.54570  0.07230  Biso   1.000  H
  H396     1.0000 0.91270  0.45430  0.92770  Biso   1.000  H
  C859     1.0000 0.11800  0.05700  0.53900  Biso   1.000  C
  C860     1.0000 0.88200  0.94300  0.46100  Biso   1.000  C
  C861     1.0000 0.53900  0.11800  0.05700  Biso   1.000  C
  C862     1.0000 0.46100  0.88200  0.94300  Biso   1.000  C
  C863     1.0000 0.05700  0.53900  0.11800  Biso   1.000  C
  C864     1.0000 0.94300  0.46100  0.88200  Biso   1.000  C
  H397     1.0000 0.12240  0.07060  0.53390  Biso   1.000  H
  H398     1.0000 0.87760  0.92940  0.46610  Biso   1.000  H
  H399     1.0000 0.53390  0.12240  0.07060  Biso   1.000  H
  H400     1.0000 0.46610  0.87760  0.92940  Biso   1.000  H
  H401     1.0000 0.07060  0.53390  0.12240  Biso   1.000  H
  H402     1.0000 0.92940  0.46610  0.87760  Biso   1.000  H
  C865     1.0000 0.14200  0.02800  0.53800  Biso   1.000  C
  C866     1.0000 0.85800  0.97200  0.46200  Biso   1.000  C
  C867     1.0000 0.53800  0.14200  0.02800  Biso   1.000  C
  C868     1.0000 0.46200  0.85800  0.97200  Biso   1.000  C
  C869     1.0000 0.02800  0.53800  0.14200  Biso   1.000  C
  C870     1.0000 0.97200  0.46200  0.85800  Biso   1.000  C
  C871     1.0000 0.13460  0.00860  0.54560  Biso   1.000  C
  C872     1.0000 0.86540  0.99140  0.45440  Biso   1.000  C
  C873     1.0000 0.54560  0.13460  0.00860  Biso   1.000  C
  C874     1.0000 0.45440  0.86540  0.99140  Biso   1.000  C
  C875     1.0000 0.00860  0.54560  0.13460  Biso   1.000  C
  C876     1.0000 0.99140  0.45440  0.86540  Biso   1.000  C
  H403     1.0000 0.15060  0.98880  0.54520  Biso   1.000  H
  H404     1.0000 0.84940  0.01120  0.45480  Biso   1.000  H
  H405     1.0000 0.54520  0.15060  0.98880  Biso   1.000  H
  H406     1.0000 0.45480  0.84940  0.01120  Biso   1.000  H
  H407     1.0000 0.98880  0.54520  0.15060  Biso   1.000  H
  H408     1.0000 0.01120  0.45480  0.84940  Biso   1.000  H
  C877     1.0000 0.49240  0.36640  0.95240  Biso   1.000  C
  C878     1.0000 0.50760  0.63360  0.04760  Biso   1.000  C
  C879     1.0000 0.95240  0.49240  0.36640  Biso   1.000  C
  C880     1.0000 0.04760  0.50760  0.63360  Biso   1.000  C
  C881     1.0000 0.36640  0.95240  0.49240  Biso   1.000  C
  C882     1.0000 0.63360  0.04760  0.50760  Biso   1.000  C
  H409     1.0000 0.51250  0.35120  0.95200  Biso   1.000  H
  H410     1.0000 0.48750  0.64880  0.04800  Biso   1.000  H
  H411     1.0000 0.95200  0.51250  0.35120  Biso   1.000  H
  H412     1.0000 0.04800  0.48750  0.64880  Biso   1.000  H
  H413     1.0000 0.35120  0.95200  0.51250  Biso   1.000  H
  H414     1.0000 0.64880  0.04800  0.48750  Biso   1.000  H
  C883     1.0000 0.47310  0.35910  0.96010  Biso   1.000  C
  C884     1.0000 0.52690  0.64090  0.03990  Biso   1.000  C
  C885     1.0000 0.96010  0.47310  0.35910  Biso   1.000  C
  C886     1.0000 0.03990  0.52690  0.64090  Biso   1.000  C
  C887     1.0000 0.35910  0.96010  0.47310  Biso   1.000  C
  C888     1.0000 0.64090  0.03990  0.52690  Biso   1.000  C
  C889     1.0000 0.44410  0.38210  0.96010  Biso   1.000  C
  C890     1.0000 0.55590  0.61790  0.03990  Biso   1.000  C
  C891     1.0000 0.96010  0.44410  0.38210  Biso   1.000  C
  C892     1.0000 0.03990  0.55590  0.61790  Biso   1.000  C
  C893     1.0000 0.38210  0.96010  0.44410  Biso   1.000  C
  C894     1.0000 0.61790  0.03990  0.55590  Biso   1.000  C
  H415     1.0000 0.43050  0.37810  0.96480  Biso   1.000  H
  H416     1.0000 0.56950  0.62190  0.03520  Biso   1.000  H
  H417     1.0000 0.96480  0.43050  0.37810  Biso   1.000  H
  H418     1.0000 0.03520  0.56950  0.62190  Biso   1.000  H
  H419     1.0000 0.37810  0.96480  0.43050  Biso   1.000  H
  H420     1.0000 0.62190  0.03520  0.56950  Biso   1.000  H
  C895     1.0000 0.43330  0.41330  0.95230  Biso   1.000  C
  C896     1.0000 0.56670  0.58670  0.04770  Biso   1.000  C
  C897     1.0000 0.95230  0.43330  0.41330  Biso   1.000  C
  C898     1.0000 0.04770  0.56670  0.58670  Biso   1.000  C
  C899     1.0000 0.41330  0.95230  0.43330  Biso   1.000  C
  C900     1.0000 0.58670  0.04770  0.56670  Biso   1.000  C
  H421     1.0000 0.41340  0.42830  0.95270  Biso   1.000  H
  H422     1.0000 0.58660  0.57170  0.04730  Biso   1.000  H
  H423     1.0000 0.95270  0.41340  0.42830  Biso   1.000  H
  H424     1.0000 0.04730  0.58660  0.57170  Biso   1.000  H
  H425     1.0000 0.42830  0.95270  0.41340  Biso   1.000  H
  H426     1.0000 0.57170  0.04730  0.58660  Biso   1.000  H
  C901     1.0000 0.45270  0.41970  0.94570  Biso   1.000  C
  C902     1.0000 0.54730  0.58030  0.05430  Biso   1.000  C
  C903     1.0000 0.94570  0.45270  0.41970  Biso   1.000  C
  C904     1.0000 0.05430  0.54730  0.58030  Biso   1.000  C
  C905     1.0000 0.41970  0.94570  0.45270  Biso   1.000  C
  C906     1.0000 0.58030  0.05430  0.54730  Biso   1.000  C
  C907     1.0000 0.46260  0.46560  0.91667  Biso   1.000  C
  C908     1.0000 0.53740  0.53440  0.08333  Biso   1.000  C
  C909     1.0000 0.91667  0.46260  0.46560  Biso   1.000  C
  C910     1.0000 0.08333  0.53740  0.53440  Biso   1.000  C
  C911     1.0000 0.46560  0.91667  0.46260  Biso   1.000  C
  C912     1.0000 0.53440  0.08333  0.53740  Biso   1.000  C
  H427     1.0000 0.48440  0.45330  0.90680  Biso   1.000  H
  H428     1.0000 0.51560  0.54670  0.09320  Biso   1.000  H
  H429     1.0000 0.90680  0.48440  0.45330  Biso   1.000  H
  H430     1.0000 0.09320  0.51560  0.54670  Biso   1.000  H
  H431     1.0000 0.45330  0.90680  0.48440  Biso   1.000  H
  H432     1.0000 0.54670  0.09320  0.51560  Biso   1.000  H
  C913     1.0000 0.44130  0.45230  0.93830  Biso   1.000  C
  C914     1.0000 0.55870  0.54770  0.06170  Biso   1.000  C
  C915     1.0000 0.93830  0.44130  0.45230  Biso   1.000  C
  C916     1.0000 0.06170  0.55870  0.54770  Biso   1.000  C
  C917     1.0000 0.45230  0.93830  0.44130  Biso   1.000  C
  C918     1.0000 0.54770  0.06170  0.55870  Biso   1.000  C
  C919     1.0000 0.40960  0.47160  0.95160  Biso   1.000  C
  C920     1.0000 0.59040  0.52840  0.04840  Biso   1.000  C
  C921     1.0000 0.95160  0.40960  0.47160  Biso   1.000  C
  C922     1.0000 0.04840  0.59040  0.52840  Biso   1.000  C
  C923     1.0000 0.47160  0.95160  0.40960  Biso   1.000  C
  C924     1.0000 0.52840  0.04840  0.59040  Biso   1.000  C
  H433     1.0000 0.39470  0.46360  0.96580  Biso   1.000  H
  H434     1.0000 0.60530  0.53640  0.03420  Biso   1.000  H
  H435     1.0000 0.96580  0.39470  0.46360  Biso   1.000  H
  H436     1.0000 0.03420  0.60530  0.53640  Biso   1.000  H
  H437     1.0000 0.46360  0.96580  0.39470  Biso   1.000  H
  H438     1.0000 0.53640  0.03420  0.60530  Biso   1.000  H
  C925     1.0000 0.40010  0.50110  0.94510  Biso   1.000  C
  C926     1.0000 0.59990  0.49890  0.05490  Biso   1.000  C
  C927     1.0000 0.94510  0.40010  0.50110  Biso   1.000  C
  C928     1.0000 0.05490  0.59990  0.49890  Biso   1.000  C
  C929     1.0000 0.50110  0.94510  0.40010  Biso   1.000  C
  C930     1.0000 0.49890  0.05490  0.59990  Biso   1.000  C
  H439     1.0000 0.37850  0.51290  0.95490  Biso   1.000  H
  H440     1.0000 0.62150  0.48710  0.04510  Biso   1.000  H
  H441     1.0000 0.95490  0.37850  0.51290  Biso   1.000  H
  H442     1.0000 0.04510  0.62150  0.48710  Biso   1.000  H
  H443     1.0000 0.51290  0.95490  0.37850  Biso   1.000  H
  H444     1.0000 0.48710  0.04510  0.62150  Biso   1.000  H
  C931     1.0000 0.42150  0.51250  0.92550  Biso   1.000  C
  C932     1.0000 0.57850  0.48750  0.07450  Biso   1.000  C
  C933     1.0000 0.92550  0.42150  0.51250  Biso   1.000  C
  C934     1.0000 0.07450  0.57850  0.48750  Biso   1.000  C
  C935     1.0000 0.51250  0.92550  0.42150  Biso   1.000  C
  C936     1.0000 0.48750  0.07450  0.57850  Biso   1.000  C
  C937     1.0000 0.45320  0.49420  0.91120  Biso   1.000  C
  C938     1.0000 0.54680  0.50580  0.08880  Biso   1.000  C
  C939     1.0000 0.91120  0.45320  0.49420  Biso   1.000  C
  C940     1.0000 0.08880  0.54680  0.50580  Biso   1.000  C
  C941     1.0000 0.49420  0.91120  0.45320  Biso   1.000  C
  C942     1.0000 0.50580  0.08880  0.54680  Biso   1.000  C
  H445     1.0000 0.46830  0.50200  0.89670  Biso   1.000  H
  H446     1.0000 0.53170  0.49800  0.10330  Biso   1.000  H
  H447     1.0000 0.89670  0.46830  0.50200  Biso   1.000  H
  H448     1.0000 0.10330  0.53170  0.49800  Biso   1.000  H
  H449     1.0000 0.50200  0.89670  0.46830  Biso   1.000  H
  H450     1.0000 0.49800  0.10330  0.53170  Biso   1.000  H
  C943     1.0000 0.41260  0.54260  0.91960  Biso   1.000  C
  C944     1.0000 0.58740  0.45740  0.08040  Biso   1.000  C
  C945     1.0000 0.91960  0.41260  0.54260  Biso   1.000  C
  C946     1.0000 0.08040  0.58740  0.45740  Biso   1.000  C
  C947     1.0000 0.54260  0.91960  0.41260  Biso   1.000  C
  C948     1.0000 0.45740  0.08040  0.58740  Biso   1.000  C
  C949     1.0000 0.48470  0.32670  0.96770  Biso   1.000  C
  C950     1.0000 0.51530  0.67330  0.03230  Biso   1.000  C
  C951     1.0000 0.96770  0.48470  0.32670  Biso   1.000  C
  C952     1.0000 0.03230  0.51530  0.67330  Biso   1.000  C
  C953     1.0000 0.32670  0.96770  0.48470  Biso   1.000  C
  C954     1.0000 0.67330  0.03230  0.51530  Biso   1.000  C
  C955     1.0000 0.99380  0.99780  0.53280  Biso   1.000  C
  C956     1.0000 0.00620  0.00220  0.46720  Biso   1.000  C
  C957     1.0000 0.53280  0.99380  0.99780  Biso   1.000  C
  C958     1.0000 0.46720  0.00620  0.00220  Biso   1.000  C
  C959     1.0000 0.99780  0.53280  0.99380  Biso   1.000  C
  C960     1.0000 0.00220  0.46720  0.00620  Biso   1.000  C
  H451     1.0000 0.01140  0.97800  0.53710  Biso   1.000  H
  H452     1.0000 0.98860  0.02200  0.46290  Biso   1.000  H
  H453     1.0000 0.53710  0.01140  0.97800  Biso   1.000  H
  H454     1.0000 0.46290  0.98860  0.02200  Biso   1.000  H
  H455     1.0000 0.97800  0.53710  0.01140  Biso   1.000  H
  H456     1.0000 0.02200  0.46290  0.98860  Biso   1.000  H
  C961     1.0000 0.97440  0.01340  0.55040  Biso   1.000  C
  C962     1.0000 0.02560  0.98660  0.44960  Biso   1.000  C
  C963     1.0000 0.55040  0.97440  0.01340  Biso   1.000  C
  C964     1.0000 0.44960  0.02560  0.98660  Biso   1.000  C
  C965     1.0000 0.01340  0.55040  0.97440  Biso   1.000  C
  C966     1.0000 0.98660  0.44960  0.02560  Biso   1.000  C
  H457     1.0000 0.97790  0.00530  0.56610  Biso   1.000  H
  H458     1.0000 0.02210  0.99470  0.43390  Biso   1.000  H
  H459     1.0000 0.56610  0.97790  0.00530  Biso   1.000  H
  H460     1.0000 0.43390  0.02210  0.99470  Biso   1.000  H
  H461     1.0000 0.00530  0.56610  0.97790  Biso   1.000  H
  H462     1.0000 0.99470  0.43390  0.02210  Biso   1.000  H
  C967     1.0000 0.94840  0.04140  0.54540  Biso   1.000  C
  C968     1.0000 0.05160  0.95860  0.45460  Biso   1.000  C
  C969     1.0000 0.54540  0.94840  0.04140  Biso   1.000  C
  C970     1.0000 0.45460  0.05160  0.95860  Biso   1.000  C
  C971     1.0000 0.04140  0.54540  0.94840  Biso   1.000  C
  C972     1.0000 0.95860  0.45460  0.05160  Biso   1.000  C
  C973     1.0000 0.94270  0.05270  0.52270  Biso   1.000  C
  C974     1.0000 0.05730  0.94730  0.47730  Biso   1.000  C
  C975     1.0000 0.52270  0.94270  0.05270  Biso   1.000  C
  C976     1.0000 0.47730  0.05730  0.94730  Biso   1.000  C
  C977     1.0000 0.05270  0.52270  0.94270  Biso   1.000  C
  C978     1.0000 0.94730  0.47730  0.05730  Biso   1.000  C
  H463     1.0000 0.92440  0.07190  0.51940  Biso   1.000  H
  H464     1.0000 0.07560  0.92810  0.48060  Biso   1.000  H
  H465     1.0000 0.51940  0.92440  0.07190  Biso   1.000  H
  H466     1.0000 0.48060  0.07560  0.92810  Biso   1.000  H
  H467     1.0000 0.07190  0.51940  0.92440  Biso   1.000  H
  H468     1.0000 0.92810  0.48060  0.07560  Biso   1.000  H
  C979     1.0000 0.96210  0.03710  0.50510  Biso   1.000  C
  C980     1.0000 0.03790  0.96290  0.49490  Biso   1.000  C
  C981     1.0000 0.50510  0.96210  0.03710  Biso   1.000  C
  C982     1.0000 0.49490  0.03790  0.96290  Biso   1.000  C
  C983     1.0000 0.03710  0.50510  0.96210  Biso   1.000  C
  C984     1.0000 0.96290  0.49490  0.03790  Biso   1.000  C
  H469     1.0000 0.95760  0.04480  0.49050  Biso   1.000  H
  H470     1.0000 0.04240  0.95520  0.50950  Biso   1.000  H
  H471     1.0000 0.49050  0.95760  0.04480  Biso   1.000  H
  H472     1.0000 0.50950  0.04240  0.95520  Biso   1.000  H
  H473     1.0000 0.04480  0.49050  0.95760  Biso   1.000  H
  H474     1.0000 0.95520  0.50950  0.04240  Biso   1.000  H
  C985     1.0000 0.98910  0.00810  0.51010  Biso   1.000  C
  C986     1.0000 0.01090  0.99190  0.48990  Biso   1.000  C
  C987     1.0000 0.51010  0.98910  0.00810  Biso   1.000  C
  C988     1.0000 0.48990  0.01090  0.99190  Biso   1.000  C
  C989     1.0000 0.00810  0.51010  0.98910  Biso   1.000  C
  C990     1.0000 0.99190  0.48990  0.01090  Biso   1.000  C
  C991     1.0000 0.46180  0.00580  0.53680  Biso   1.000  C
  C992     1.0000 0.53820  0.99420  0.46320  Biso   1.000  C
  C993     1.0000 0.53680  0.46180  0.00580  Biso   1.000  C
  C994     1.0000 0.46320  0.53820  0.99420  Biso   1.000  C
  C995     1.0000 0.00580  0.53680  0.46180  Biso   1.000  C
  C996     1.0000 0.99420  0.46320  0.53820  Biso   1.000  C
  H475     1.0000 0.45710  0.99120  0.54440  Biso   1.000  H
  H476     1.0000 0.54290  0.00880  0.45560  Biso   1.000  H
  H477     1.0000 0.54440  0.45710  0.99120  Biso   1.000  H
  H478     1.0000 0.45560  0.54290  0.00880  Biso   1.000  H
  H479     1.0000 0.99120  0.54440  0.45710  Biso   1.000  H
  H480     1.0000 0.00880  0.45560  0.54290  Biso   1.000  H
  C997     1.0000 0.44240  0.02340  0.55240  Biso   1.000  C
  C998     1.0000 0.55760  0.97660  0.44760  Biso   1.000  C
  C999     1.0000 0.55240  0.44240  0.02340  Biso   1.000  C
  C1000    1.0000 0.44760  0.55760  0.97660  Biso   1.000  C
  C1001    1.0000 0.02340  0.55240  0.44240  Biso   1.000  C
  C1002    1.0000 0.97660  0.44760  0.55760  Biso   1.000  C
  H481     1.0000 0.42430  0.02000  0.57150  Biso   1.000  H
  H482     1.0000 0.57570  0.98000  0.42850  Biso   1.000  H
  H483     1.0000 0.57150  0.42430  0.02000  Biso   1.000  H
  H484     1.0000 0.42850  0.57570  0.98000  Biso   1.000  H
  H485     1.0000 0.02000  0.57150  0.42430  Biso   1.000  H
  H486     1.0000 0.98000  0.42850  0.57570  Biso   1.000  H
  C1003    1.0000 0.44820  0.04520  0.54220  Biso   1.000  C
  C1004    1.0000 0.55180  0.95480  0.45780  Biso   1.000  C
  C1005    1.0000 0.54220  0.44820  0.04520  Biso   1.000  C
  C1006    1.0000 0.45780  0.55180  0.95480  Biso   1.000  C
  C1007    1.0000 0.04520  0.54220  0.44820  Biso   1.000  C
  C1008    1.0000 0.95480  0.45780  0.55180  Biso   1.000  C
  C1009    1.0000 0.47420  0.05120  0.51320  Biso   1.000  C
  C1010    1.0000 0.52580  0.94880  0.48680  Biso   1.000  C
  C1011    1.0000 0.51320  0.47420  0.05120  Biso   1.000  C
  C1012    1.0000 0.48680  0.52580  0.94880  Biso   1.000  C
  C1013    1.0000 0.05120  0.51320  0.47420  Biso   1.000  C
  C1014    1.0000 0.94880  0.48680  0.52580  Biso   1.000  C
  H487     1.0000 0.47890  0.06550  0.50560  Biso   1.000  H
  H488     1.0000 0.52110  0.93450  0.49440  Biso   1.000  H
  H489     1.0000 0.50560  0.47890  0.06550  Biso   1.000  H
  H490     1.0000 0.49440  0.52110  0.93450  Biso   1.000  H
  H491     1.0000 0.06550  0.50560  0.47890  Biso   1.000  H
  H492     1.0000 0.93450  0.49440  0.52110  Biso   1.000  H
  C1015    1.0000 0.49450  0.03250  0.49750  Biso   1.000  C
  C1016    1.0000 0.50550  0.96750  0.50250  Biso   1.000  C
  C1017    1.0000 0.49750  0.49450  0.03250  Biso   1.000  C
  C1018    1.0000 0.50250  0.50550  0.96750  Biso   1.000  C
  C1019    1.0000 0.03250  0.49750  0.49450  Biso   1.000  C
  C1020    1.0000 0.96750  0.50250  0.50550  Biso   1.000  C
  H493     1.0000 0.51210  0.03660  0.47820  Biso   1.000  H
  H494     1.0000 0.48790  0.96340  0.52180  Biso   1.000  H
  H495     1.0000 0.47820  0.51210  0.03660  Biso   1.000  H
  H496     1.0000 0.52180  0.48790  0.96340  Biso   1.000  H
  H497     1.0000 0.03660  0.47820  0.51210  Biso   1.000  H
  H498     1.0000 0.96340  0.52180  0.48790  Biso   1.000  H
  C1021    1.0000 0.48880  0.00980  0.50880  Biso   1.000  C
  C1022    1.0000 0.51120  0.99020  0.49120  Biso   1.000  C
  C1023    1.0000 0.50880  0.48880  0.00980  Biso   1.000  C
  C1024    1.0000 0.49120  0.51120  0.99020  Biso   1.000  C
  C1025    1.0000 0.00980  0.50880  0.48880  Biso   1.000  C
  C1026    1.0000 0.99020  0.49120  0.51120  Biso   1.000  C
  C1027    1.0000 0.42930  0.06130  0.56030  Biso   1.000  C
  C1028    1.0000 0.57070  0.93870  0.43970  Biso   1.000  C
  C1029    1.0000 0.56030  0.42930  0.06130  Biso   1.000  C
  C1030    1.0000 0.43970  0.57070  0.93870  Biso   1.000  C
  C1031    1.0000 0.06130  0.56030  0.42930  Biso   1.000  C
  C1032    1.0000 0.93870  0.43970  0.57070  Biso   1.000  C
  C1033    1.0000 0.72410  0.04510  0.52510  Biso   1.000  C
  C1034    1.0000 0.27590  0.95490  0.47490  Biso   1.000  C
  C1035    1.0000 0.52510  0.72410  0.04510  Biso   1.000  C
  C1036    1.0000 0.47490  0.27590  0.95490  Biso   1.000  C
  C1037    1.0000 0.04510  0.52510  0.72410  Biso   1.000  C
  C1038    1.0000 0.95490  0.47490  0.27590  Biso   1.000  C
  C1039    1.0000 0.48170  0.39670  0.94570  Biso   1.000  C
  C1040    1.0000 0.51830  0.60330  0.05430  Biso   1.000  C
  C1041    1.0000 0.94570  0.48170  0.39670  Biso   1.000  C
  C1042    1.0000 0.05430  0.51830  0.60330  Biso   1.000  C
  C1043    1.0000 0.39670  0.94570  0.48170  Biso   1.000  C
  C1044    1.0000 0.60330  0.05430  0.51830  Biso   1.000  C
  H499     1.0000 0.49510  0.40100  0.94090  Biso   1.000  H
  H500     1.0000 0.50490  0.59900  0.05910  Biso   1.000  H
  H501     1.0000 0.94090  0.49510  0.40100  Biso   1.000  H
  H502     1.0000 0.05910  0.50490  0.59900  Biso   1.000  H
  H503     1.0000 0.40100  0.94090  0.49510  Biso   1.000  H
  H504     1.0000 0.59900  0.05910  0.50490  Biso   1.000  H
